(PID.TID 0000.0001) 
(PID.TID 0000.0001) // ======================================================
(PID.TID 0000.0001) //                      MITgcm UV
(PID.TID 0000.0001) //                      =========
(PID.TID 0000.0001) // ======================================================
(PID.TID 0000.0001) // execution environment starting up...
(PID.TID 0000.0001) 
(PID.TID 0000.0001) // MITgcmUV version:  checkpoint67v
(PID.TID 0000.0001) // Build user:        eavesr
(PID.TID 0000.0001) // Build host:        atmlxint3
(PID.TID 0000.0001) // Build date:        Mon  8 Mar 10:39:37 GMT 2021
(PID.TID 0000.0001) 
(PID.TID 0000.0001) // =======================================================
(PID.TID 0000.0001) // Execution Environment parameter file "eedata"
(PID.TID 0000.0001) // =======================================================
(PID.TID 0000.0001) ># Example "eedata" file
(PID.TID 0000.0001) ># Lines beginning "#" are comments
(PID.TID 0000.0001) >#  nTx      :: No. threads per process in X
(PID.TID 0000.0001) >#  nTy      :: No. threads per process in Y
(PID.TID 0000.0001) ># debugMode :: print debug msg (sequence of S/R calls)
(PID.TID 0000.0001) > &EEPARMS
(PID.TID 0000.0001) > nTx=1,
(PID.TID 0000.0001) > nTy=1,
(PID.TID 0000.0001) > &
(PID.TID 0000.0001) ># Note: Some systems use & as the namelist terminator (as shown here).
(PID.TID 0000.0001) >#       Other systems use a / character.
(PID.TID 0000.0001) 
(PID.TID 0000.0001) // =======================================================
(PID.TID 0000.0001) // Computational Grid Specification ( see files "SIZE.h" )
(PID.TID 0000.0001) //                                  ( and "eedata"       )
(PID.TID 0000.0001) // =======================================================
(PID.TID 0000.0001)      nPx =    1 ; /* No. processes in X */
(PID.TID 0000.0001)      nPy =    1 ; /* No. processes in Y */
(PID.TID 0000.0001)      nSx =    1 ; /* No. tiles in X per process */
(PID.TID 0000.0001)      nSy =    1 ; /* No. tiles in Y per process */
(PID.TID 0000.0001)      sNx =  248 ; /* Tile size in X */
(PID.TID 0000.0001)      sNy =  248 ; /* Tile size in Y */
(PID.TID 0000.0001)      OLx =    2 ; /* Tile overlap distance in X */
(PID.TID 0000.0001)      OLy =    2 ; /* Tile overlap distance in Y */
(PID.TID 0000.0001)      nTx =    1 ; /* No. threads in X per process */
(PID.TID 0000.0001)      nTy =    1 ; /* No. threads in Y per process */
(PID.TID 0000.0001)       Nr =    1 ; /* No. levels in the vertical   */
(PID.TID 0000.0001)       Nx =  248 ; /* Total domain size in X ( = nPx*nSx*sNx ) */
(PID.TID 0000.0001)       Ny =  248 ; /* Total domain size in Y ( = nPy*nSy*sNy ) */
(PID.TID 0000.0001)   nTiles =    1 ; /* Total no. tiles per process ( = nSx*nSy ) */
(PID.TID 0000.0001)   nProcs =    1 ; /* Total no. processes ( = nPx*nPy ) */
(PID.TID 0000.0001) nThreads =    1 ; /* Total no. threads per process ( = nTx*nTy ) */
(PID.TID 0000.0001) usingMPI =    F ; /* Flag used to control whether MPI is in use */
(PID.TID 0000.0001)                   /*  note: To execute a program with MPI calls */
(PID.TID 0000.0001)                   /*  it must be launched appropriately e.g     */
(PID.TID 0000.0001)                   /*  "mpirun -np 64 ......"                    */
(PID.TID 0000.0001) useCoupler=   F ; /* Flag used to control communications with   */
(PID.TID 0000.0001)                   /*  other model components, through a coupler */
(PID.TID 0000.0001) useNest2W_parent =    F ;/* Control 2-W Nesting comm */
(PID.TID 0000.0001) useNest2W_child  =    F ;/* Control 2-W Nesting comm */
(PID.TID 0000.0001) debugMode =    F ; /* print debug msg. (sequence of S/R calls)  */
(PID.TID 0000.0001) printMapIncludesZeros=    F ; /* print zeros in Std.Output maps */
(PID.TID 0000.0001) maxLengthPrt1D=   65 /* maxLength of 1D array printed to StdOut */
(PID.TID 0000.0001) 
(PID.TID 0000.0001) // ======================================================
(PID.TID 0000.0001) // Mapping of tiles to threads
(PID.TID 0000.0001) // ======================================================
(PID.TID 0000.0001) // -o- Thread   1, tiles (   1:   1,   1:   1)
(PID.TID 0000.0001) 
(PID.TID 0000.0001) // ======================================================
(PID.TID 0000.0001) // Tile <-> Tile connectvity table
(PID.TID 0000.0001) // ======================================================
(PID.TID 0000.0001) // Tile number: 000001 (process no. = 000000)
(PID.TID 0000.0001) //        WEST: Tile = 000001, Process = 000000, Comm = put
(PID.TID 0000.0001) //                bi = 000001, bj = 000001
(PID.TID 0000.0001) //        EAST: Tile = 000001, Process = 000000, Comm = put
(PID.TID 0000.0001) //                bi = 000001, bj = 000001
(PID.TID 0000.0001) //       SOUTH: Tile = 000001, Process = 000000, Comm = put
(PID.TID 0000.0001) //                bi = 000001, bj = 000001
(PID.TID 0000.0001) //       NORTH: Tile = 000001, Process = 000000, Comm = put
(PID.TID 0000.0001) //                bi = 000001, bj = 000001
(PID.TID 0000.0001) 
(PID.TID 0000.0001)  INI_PARMS: opening model parameter file "data"
(PID.TID 0000.0001)  OPEN_COPY_DATA_FILE: opening file data
(PID.TID 0000.0001) // =======================================================
(PID.TID 0000.0001) // Parameter file "data"
(PID.TID 0000.0001) // =======================================================
(PID.TID 0000.0001) ># Model parameters
(PID.TID 0000.0001) ># Continuous equation parameters
(PID.TID 0000.0001) > &PARM01
(PID.TID 0000.0001) > viscAh=4.E2,
(PID.TID 0000.0001) > f0=0.7E-4,
(PID.TID 0000.0001) > beta=2.E-11,
(PID.TID 0000.0001) > rhoConst=1027.,
(PID.TID 0000.0001) > gBaro=9.81,
(PID.TID 0000.0001) > rigidLid=.FALSE.,
(PID.TID 0000.0001) > implicitFreeSurface=.TRUE.,
(PID.TID 0000.0001) ># momAdvection=.FALSE.,
(PID.TID 0000.0001) > tempStepping=.FALSE.,
(PID.TID 0000.0001) > saltStepping=.FALSE.,
(PID.TID 0000.0001) > useSingleCpuIO=.TRUE.,
(PID.TID 0000.0001) > hFacMin=0.1,
(PID.TID 0000.0001) > &
(PID.TID 0000.0001) >
(PID.TID 0000.0001) ># Elliptic solver parameters
(PID.TID 0000.0001) > &PARM02
(PID.TID 0000.0001) > cg2dTargetResidual=1.E-7,
(PID.TID 0000.0001) > cg2dMaxIters=1000,
(PID.TID 0000.0001) > &
(PID.TID 0000.0001) >
(PID.TID 0000.0001) ># Time stepping parameters
(PID.TID 0000.0001) > &PARM03
(PID.TID 0000.0001) > nIter0=0,
(PID.TID 0000.0001) >#nTimeSteps=58400,
(PID.TID 0000.0001) > nTimeSteps=5824,
(PID.TID 0000.0001) > deltaT=5400.0,
(PID.TID 0000.0001) > pChkptFreq=31104000.0,
(PID.TID 0000.0001) > chkptFreq=25920000.0,
(PID.TID 0000.0001) > dumpFreq=864000.0,
(PID.TID 0000.0001) > monitorFreq=86400.,
(PID.TID 0000.0001) > monitorSelect=2,
(PID.TID 0000.0001) >#-for longer run (3.0 yr):
(PID.TID 0000.0001) ># nTimeSteps=77760,
(PID.TID 0000.0001) ># monitorFreq=864000.,
(PID.TID 0000.0001) > &
(PID.TID 0000.0001) >
(PID.TID 0000.0001) ># Gridding parameters
(PID.TID 0000.0001) > &PARM04
(PID.TID 0000.0001) > usingCartesianGrid=.TRUE.,
(PID.TID 0000.0001) > delX=248*5.E3,
(PID.TID 0000.0001) > delY=248*5.E3,
(PID.TID 0000.0001) > xgOrigin=-5.E3,
(PID.TID 0000.0001) > ygOrigin=-5.E3,
(PID.TID 0000.0001) > delR=5000.,
(PID.TID 0000.0001) > &
(PID.TID 0000.0001) >
(PID.TID 0000.0001) ># Input datasets
(PID.TID 0000.0001) > &PARM05
(PID.TID 0000.0001) > bathyFile='bathy.bin'
(PID.TID 0000.0001) >#zonalWindFile='wind.bin',
(PID.TID 0000.0001) >#zonalWindFile='windx_siny.bin',
(PID.TID 0000.0001) >#meridWindFile=,
(PID.TID 0000.0001) > uVelInitFile='u.bin',
(PID.TID 0000.0001) > vVelInitFile='v.bin',
(PID.TID 0000.0001) > &
(PID.TID 0000.0001) 
(PID.TID 0000.0001)  INI_PARMS ; starts to read PARM01
(PID.TID 0000.0001)  INI_PARMS ; read PARM01 : OK
(PID.TID 0000.0001)  INI_PARMS ; starts to read PARM02
(PID.TID 0000.0001)  INI_PARMS ; read PARM02 : OK
(PID.TID 0000.0001)  INI_PARMS ; starts to read PARM03
(PID.TID 0000.0001)  INI_PARMS ; read PARM03 : OK
(PID.TID 0000.0001)  INI_PARMS ; starts to read PARM04
(PID.TID 0000.0001)  INI_PARMS ; read PARM04 : OK
(PID.TID 0000.0001)  INI_PARMS ; starts to read PARM05
(PID.TID 0000.0001)  INI_PARMS ; read PARM05 : OK
(PID.TID 0000.0001)  INI_PARMS: finished reading file "data"
(PID.TID 0000.0001)  PACKAGES_BOOT: opening data.pkg
(PID.TID 0000.0001)  OPEN_COPY_DATA_FILE: opening file data.pkg
(PID.TID 0000.0001) // =======================================================
(PID.TID 0000.0001) // Parameter file "data.pkg"
(PID.TID 0000.0001) // =======================================================
(PID.TID 0000.0001) ># Packages
(PID.TID 0000.0001) > &PACKAGES
(PID.TID 0000.0001) > &
(PID.TID 0000.0001) 
(PID.TID 0000.0001)  PACKAGES_BOOT: finished reading data.pkg
(PID.TID 0000.0001)  PACKAGES_BOOT: On/Off package Summary
 --------  pkgs with a standard "usePKG" On/Off switch in "data.pkg":  --------
 -------- pkgs without standard "usePKG" On/Off switch in "data.pkg":  --------
 pkg/generic_advdiff      compiled but not used ( useGAD                   = F )
 pkg/mom_common           compiled   and   used ( momStepping              = T )
 pkg/mom_vecinv           compiled but not used ( +vectorInvariantMomentum = F )
 pkg/mom_fluxform         compiled   and   used ( & not vectorInvariantMom = T )
 pkg/monitor              compiled   and   used ( monitorFreq > 0.         = T )
 pkg/debug                compiled but not used ( debugMode                = F )
 pkg/rw                   compiled   and   used
 pkg/mdsio                compiled   and   used
(PID.TID 0000.0001)  PACKAGES_BOOT: End of package Summary
(PID.TID 0000.0001) 
(PID.TID 0000.0001) SET_PARMS: done
(PID.TID 0000.0001) Enter INI_VERTICAL_GRID: setInterFDr=    T ; setCenterDr=    F
(PID.TID 0000.0001) %MON XC_max                       =   1.2325000000000E+06
(PID.TID 0000.0001) %MON XC_min                       =  -2.5000000000000E+03
(PID.TID 0000.0001) %MON XC_mean                      =   6.1500000000000E+05
(PID.TID 0000.0001) %MON XC_sd                        =   3.5795425685414E+05
(PID.TID 0000.0001) %MON XG_max                       =   1.2300000000000E+06
(PID.TID 0000.0001) %MON XG_min                       =  -5.0000000000000E+03
(PID.TID 0000.0001) %MON XG_mean                      =   6.1250000000000E+05
(PID.TID 0000.0001) %MON XG_sd                        =   3.5795425685414E+05
(PID.TID 0000.0001) %MON DXC_max                      =   5.0000000000000E+03
(PID.TID 0000.0001) %MON DXC_min                      =   5.0000000000000E+03
(PID.TID 0000.0001) %MON DXC_mean                     =   5.0000000000000E+03
(PID.TID 0000.0001) %MON DXC_sd                       =   9.0949470177293E-13
(PID.TID 0000.0001) %MON DXF_max                      =   5.0000000000000E+03
(PID.TID 0000.0001) %MON DXF_min                      =   5.0000000000000E+03
(PID.TID 0000.0001) %MON DXF_mean                     =   5.0000000000000E+03
(PID.TID 0000.0001) %MON DXF_sd                       =   9.0949470177293E-13
(PID.TID 0000.0001) %MON DXG_max                      =   5.0000000000000E+03
(PID.TID 0000.0001) %MON DXG_min                      =   5.0000000000000E+03
(PID.TID 0000.0001) %MON DXG_mean                     =   5.0000000000000E+03
(PID.TID 0000.0001) %MON DXG_sd                       =   9.0949470177293E-13
(PID.TID 0000.0001) %MON DXV_max                      =   5.0000000000000E+03
(PID.TID 0000.0001) %MON DXV_min                      =   5.0000000000000E+03
(PID.TID 0000.0001) %MON DXV_mean                     =   5.0000000000000E+03
(PID.TID 0000.0001) %MON DXV_sd                       =   9.0949470177293E-13
(PID.TID 0000.0001) %MON YC_max                       =   1.2325000000000E+06
(PID.TID 0000.0001) %MON YC_min                       =  -2.5000000000000E+03
(PID.TID 0000.0001) %MON YC_mean                      =   6.1500000000000E+05
(PID.TID 0000.0001) %MON YC_sd                        =   3.5795425685414E+05
(PID.TID 0000.0001) %MON YG_max                       =   1.2300000000000E+06
(PID.TID 0000.0001) %MON YG_min                       =  -5.0000000000000E+03
(PID.TID 0000.0001) %MON YG_mean                      =   6.1250000000000E+05
(PID.TID 0000.0001) %MON YG_sd                        =   3.5795425685414E+05
(PID.TID 0000.0001) %MON DYC_max                      =   5.0000000000000E+03
(PID.TID 0000.0001) %MON DYC_min                      =   5.0000000000000E+03
(PID.TID 0000.0001) %MON DYC_mean                     =   5.0000000000000E+03
(PID.TID 0000.0001) %MON DYC_sd                       =   9.0949470177293E-13
(PID.TID 0000.0001) %MON DYF_max                      =   5.0000000000000E+03
(PID.TID 0000.0001) %MON DYF_min                      =   5.0000000000000E+03
(PID.TID 0000.0001) %MON DYF_mean                     =   5.0000000000000E+03
(PID.TID 0000.0001) %MON DYF_sd                       =   9.0949470177293E-13
(PID.TID 0000.0001) %MON DYG_max                      =   5.0000000000000E+03
(PID.TID 0000.0001) %MON DYG_min                      =   5.0000000000000E+03
(PID.TID 0000.0001) %MON DYG_mean                     =   5.0000000000000E+03
(PID.TID 0000.0001) %MON DYG_sd                       =   9.0949470177293E-13
(PID.TID 0000.0001) %MON DYU_max                      =   5.0000000000000E+03
(PID.TID 0000.0001) %MON DYU_min                      =   5.0000000000000E+03
(PID.TID 0000.0001) %MON DYU_mean                     =   5.0000000000000E+03
(PID.TID 0000.0001) %MON DYU_sd                       =   9.0949470177293E-13
(PID.TID 0000.0001) %MON RA_max                       =   2.5000000000000E+07
(PID.TID 0000.0001) %MON RA_min                       =   2.5000000000000E+07
(PID.TID 0000.0001) %MON RA_mean                      =   2.5000000000000E+07
(PID.TID 0000.0001) %MON RA_sd                        =   3.7252902984619E-09
(PID.TID 0000.0001) %MON RAW_max                      =   2.5000000000000E+07
(PID.TID 0000.0001) %MON RAW_min                      =   2.5000000000000E+07
(PID.TID 0000.0001) %MON RAW_mean                     =   2.5000000000000E+07
(PID.TID 0000.0001) %MON RAW_sd                       =   3.7252902984619E-09
(PID.TID 0000.0001) %MON RAS_max                      =   2.5000000000000E+07
(PID.TID 0000.0001) %MON RAS_min                      =   2.5000000000000E+07
(PID.TID 0000.0001) %MON RAS_mean                     =   2.5000000000000E+07
(PID.TID 0000.0001) %MON RAS_sd                       =   3.7252902984619E-09
(PID.TID 0000.0001) %MON RAZ_max                      =   2.5000000000000E+07
(PID.TID 0000.0001) %MON RAZ_min                      =   2.5000000000000E+07
(PID.TID 0000.0001) %MON RAZ_mean                     =   2.5000000000000E+07
(PID.TID 0000.0001) %MON RAZ_sd                       =   3.7252902984619E-09
(PID.TID 0000.0001) %MON AngleCS_max                  =   1.0000000000000E+00
(PID.TID 0000.0001) %MON AngleCS_min                  =   1.0000000000000E+00
(PID.TID 0000.0001) %MON AngleCS_mean                 =   1.0000000000000E+00
(PID.TID 0000.0001) %MON AngleCS_sd                   =   0.0000000000000E+00
(PID.TID 0000.0001) %MON AngleSN_max                  =   0.0000000000000E+00
(PID.TID 0000.0001) %MON AngleSN_min                  =   0.0000000000000E+00
(PID.TID 0000.0001) %MON AngleSN_mean                 =   0.0000000000000E+00
(PID.TID 0000.0001) %MON AngleSN_sd                   =   0.0000000000000E+00
(PID.TID 0000.0001)  MDS_READ_FIELD: opening global file: bathy.bin
(PID.TID 0000.0001) // =======================================================
(PID.TID 0000.0001) // Field Model R_low (ini_masks_etc)
(PID.TID 0000.0001) // CMIN =         -5.000000000000000E+03
(PID.TID 0000.0001) // CMAX =         -5.000000000000000E+03
(PID.TID 0000.0001) // CINT =          0.000000000000000E+00
(PID.TID 0000.0001) // SYMBOLS (CMIN->CMAX): -abcdefghijklmnopqrstuvwxyz+
(PID.TID 0000.0001) //                  0.0: .
(PID.TID 0000.0001) // RANGE I (Lo:Hi:Step):(    -1:   250:     1)
(PID.TID 0000.0001) // RANGE J (Lo:Hi:Step):(   250:    -1:    -1)
(PID.TID 0000.0001) // RANGE K (Lo:Hi:Step):(   1:   1:   1)
(PID.TID 0000.0001) // =======================================================
(PID.TID 0000.0001) // =======================================================
(PID.TID 0000.0001) // END OF FIELD                                          =
(PID.TID 0000.0001) // =======================================================
(PID.TID 0000.0001) 
(PID.TID 0000.0001) // =======================================================
(PID.TID 0000.0001) // Field Model Ro_surf (ini_masks_etc)
(PID.TID 0000.0001) // CMIN =          1.000000000000000E+32
(PID.TID 0000.0001) // CMAX =         -1.000000000000000E+32
(PID.TID 0000.0001) // CINT =          0.000000000000000E+00
(PID.TID 0000.0001) // SYMBOLS (CMIN->CMAX): -abcdefghijklmnopqrstuvwxyz+
(PID.TID 0000.0001) //                  0.0: .
(PID.TID 0000.0001) // RANGE I (Lo:Hi:Step):(    -1:   250:     1)
(PID.TID 0000.0001) // RANGE J (Lo:Hi:Step):(   250:    -1:    -1)
(PID.TID 0000.0001) // RANGE K (Lo:Hi:Step):(   1:   1:   1)
(PID.TID 0000.0001) // =======================================================
(PID.TID 0000.0001) // =======================================================
(PID.TID 0000.0001) // END OF FIELD                                          =
(PID.TID 0000.0001) // =======================================================
(PID.TID 0000.0001) 
(PID.TID 0000.0001) // =======================================================
(PID.TID 0000.0001) // Field hFacC at iteration          0
(PID.TID 0000.0001) // CMIN =          1.000000000000000E+00
(PID.TID 0000.0001) // CMAX =          1.000000000000000E+00
(PID.TID 0000.0001) // CINT =          0.000000000000000E+00
(PID.TID 0000.0001) // SYMBOLS (CMIN->CMAX): -abcdefghijklmnopqrstuvwxyz+
(PID.TID 0000.0001) //                  0.0: .
(PID.TID 0000.0001) // RANGE I (Lo:Hi:Step):(    -1:   250:     1)
(PID.TID 0000.0001) // RANGE J (Lo:Hi:Step):(   250:    -1:    -1)
(PID.TID 0000.0001) // RANGE K (Lo:Hi:Step):(   1:   1:   1)
(PID.TID 0000.0001) // =======================================================
(PID.TID 0000.0001) // =======================================================
(PID.TID 0000.0001) // END OF FIELD                                          =
(PID.TID 0000.0001) // =======================================================
(PID.TID 0000.0001) 
(PID.TID 0000.0001) // =======================================================
(PID.TID 0000.0001) // Field hFacW at iteration          0
(PID.TID 0000.0001) // CMIN =          1.000000000000000E+00
(PID.TID 0000.0001) // CMAX =          1.000000000000000E+00
(PID.TID 0000.0001) // CINT =          0.000000000000000E+00
(PID.TID 0000.0001) // SYMBOLS (CMIN->CMAX): -abcdefghijklmnopqrstuvwxyz+
(PID.TID 0000.0001) //                  0.0: .
(PID.TID 0000.0001) // RANGE I (Lo:Hi:Step):(    -1:   250:     1)
(PID.TID 0000.0001) // RANGE J (Lo:Hi:Step):(   250:    -1:    -1)
(PID.TID 0000.0001) // RANGE K (Lo:Hi:Step):(   1:   1:   1)
(PID.TID 0000.0001) // =======================================================
(PID.TID 0000.0001) // =======================================================
(PID.TID 0000.0001) // END OF FIELD                                          =
(PID.TID 0000.0001) // =======================================================
(PID.TID 0000.0001) 
(PID.TID 0000.0001) // =======================================================
(PID.TID 0000.0001) // Field hFacS at iteration          0
(PID.TID 0000.0001) // CMIN =          1.000000000000000E+00
(PID.TID 0000.0001) // CMAX =          1.000000000000000E+00
(PID.TID 0000.0001) // CINT =          0.000000000000000E+00
(PID.TID 0000.0001) // SYMBOLS (CMIN->CMAX): -abcdefghijklmnopqrstuvwxyz+
(PID.TID 0000.0001) //                  0.0: .
(PID.TID 0000.0001) // RANGE I (Lo:Hi:Step):(    -1:   250:     1)
(PID.TID 0000.0001) // RANGE J (Lo:Hi:Step):(   250:    -1:    -1)
(PID.TID 0000.0001) // RANGE K (Lo:Hi:Step):(   1:   1:   1)
(PID.TID 0000.0001) // =======================================================
(PID.TID 0000.0001) // =======================================================
(PID.TID 0000.0001) // END OF FIELD                                          =
(PID.TID 0000.0001) // =======================================================
(PID.TID 0000.0001) 
(PID.TID 0000.0001) GAD_INIT_FIXED: GAD_OlMinSize=  0  0  1
(PID.TID 0000.0001) 
(PID.TID 0000.0001) // ===================================
(PID.TID 0000.0001) // GAD parameters :
(PID.TID 0000.0001) // ===================================
(PID.TID 0000.0001) tempAdvScheme =   /* Temp. Horiz.Advection scheme selector */
(PID.TID 0000.0001)                       2
(PID.TID 0000.0001)     ;
(PID.TID 0000.0001) tempVertAdvScheme =   /* Temp. Vert. Advection scheme selector */
(PID.TID 0000.0001)                       2
(PID.TID 0000.0001)     ;
(PID.TID 0000.0001) tempMultiDimAdvec =   /* use Muti-Dim Advec method for Temp */
(PID.TID 0000.0001)                   F
(PID.TID 0000.0001)     ;
(PID.TID 0000.0001) tempSOM_Advection = /* use 2nd Order Moment Advection for Temp */
(PID.TID 0000.0001)                   F
(PID.TID 0000.0001)     ;
(PID.TID 0000.0001) AdamsBashforthGt = /* apply Adams-Bashforth extrapolation on Gt */
(PID.TID 0000.0001)                   F
(PID.TID 0000.0001)     ;
(PID.TID 0000.0001) AdamsBashforth_T = /* apply Adams-Bashforth extrapolation on Temp */
(PID.TID 0000.0001)                   F
(PID.TID 0000.0001)     ;
(PID.TID 0000.0001) saltAdvScheme =   /* Salt. Horiz.advection scheme selector */
(PID.TID 0000.0001)                       2
(PID.TID 0000.0001)     ;
(PID.TID 0000.0001) saltVertAdvScheme =   /* Salt. Vert. Advection scheme selector */
(PID.TID 0000.0001)                       2
(PID.TID 0000.0001)     ;
(PID.TID 0000.0001) saltMultiDimAdvec =   /* use Muti-Dim Advec method for Salt */
(PID.TID 0000.0001)                   F
(PID.TID 0000.0001)     ;
(PID.TID 0000.0001) saltSOM_Advection = /* use 2nd Order Moment Advection for Salt */
(PID.TID 0000.0001)                   F
(PID.TID 0000.0001)     ;
(PID.TID 0000.0001) AdamsBashforthGs = /* apply Adams-Bashforth extrapolation on Gs */
(PID.TID 0000.0001)                   F
(PID.TID 0000.0001)     ;
(PID.TID 0000.0001) AdamsBashforth_S = /* apply Adams-Bashforth extrapolation on Salt */
(PID.TID 0000.0001)                   F
(PID.TID 0000.0001)     ;
(PID.TID 0000.0001) // ===================================
(PID.TID 0000.0001) %MON fCori_max                    =   9.4650000000000E-05
(PID.TID 0000.0001) %MON fCori_min                    =   6.9950000000000E-05
(PID.TID 0000.0001) %MON fCori_mean                   =   8.2300000000003E-05
(PID.TID 0000.0001) %MON fCori_sd                     =   7.1590851370829E-06
(PID.TID 0000.0001) %MON fCoriG_max                   =   9.4600000000000E-05
(PID.TID 0000.0001) %MON fCoriG_min                   =   6.9900000000000E-05
(PID.TID 0000.0001) %MON fCoriG_mean                  =   8.2250000000006E-05
(PID.TID 0000.0001) %MON fCoriG_sd                    =   7.1590851370828E-06
(PID.TID 0000.0001) %MON fCoriCos_max                 =   0.0000000000000E+00
(PID.TID 0000.0001) %MON fCoriCos_min                 =   0.0000000000000E+00
(PID.TID 0000.0001) %MON fCoriCos_mean                =   0.0000000000000E+00
(PID.TID 0000.0001) %MON fCoriCos_sd                  =   0.0000000000000E+00
(PID.TID 0000.0001) INI_CG2D: CG2D normalisation factor =  2.0000000000000001E-04
(PID.TID 0000.0001) 
(PID.TID 0000.0001) // =======================================================
(PID.TID 0000.0001) // Model configuration
(PID.TID 0000.0001) // =======================================================
(PID.TID 0000.0001) //
(PID.TID 0000.0001) // "Physical" paramters ( PARM01 in namelist )
(PID.TID 0000.0001) //
(PID.TID 0000.0001) buoyancyRelation = /* Type of relation to get Buoyancy */
(PID.TID 0000.0001)               'OCEANIC'
(PID.TID 0000.0001)     ;
(PID.TID 0000.0001) fluidIsAir   =  /* fluid major constituent is Air */
(PID.TID 0000.0001)                   F
(PID.TID 0000.0001)     ;
(PID.TID 0000.0001) fluidIsWater =  /* fluid major constituent is Water */
(PID.TID 0000.0001)                   T
(PID.TID 0000.0001)     ;
(PID.TID 0000.0001) usingPCoords =  /* use p (or p*) vertical coordinate */
(PID.TID 0000.0001)                   F
(PID.TID 0000.0001)     ;
(PID.TID 0000.0001) usingZCoords =  /* use z (or z*) vertical coordinate */
(PID.TID 0000.0001)                   T
(PID.TID 0000.0001)     ;
(PID.TID 0000.0001) tRef =   /* Reference temperature profile ( oC or K ) */
(PID.TID 0000.0001)                 2.000000000000000E+01       /* K =  1 */
(PID.TID 0000.0001)     ;
(PID.TID 0000.0001) sRef =   /* Reference salinity profile ( psu ) */
(PID.TID 0000.0001)                 3.000000000000000E+01       /* K =  1 */
(PID.TID 0000.0001)     ;
(PID.TID 0000.0001) useStrainTensionVisc= /* Use StrainTension Form of Viscous Operator */
(PID.TID 0000.0001)                   F
(PID.TID 0000.0001)     ;
(PID.TID 0000.0001) useVariableVisc = /* Use variable horizontal viscosity */
(PID.TID 0000.0001)                   F
(PID.TID 0000.0001)     ;
(PID.TID 0000.0001) useHarmonicVisc = /* Use harmonic horizontal viscosity */
(PID.TID 0000.0001)                   T
(PID.TID 0000.0001)     ;
(PID.TID 0000.0001) useBiharmonicVisc= /* Use biharmonic horiz.  viscosity */
(PID.TID 0000.0001)                   F
(PID.TID 0000.0001)     ;
(PID.TID 0000.0001) useSmag3D = /* Use isotropic 3-D Smagorinsky viscosity */
(PID.TID 0000.0001)                   F
(PID.TID 0000.0001)     ;
(PID.TID 0000.0001) viscAh  =   /* Lateral harmonic viscosity ( m^2/s ) */
(PID.TID 0000.0001)                 4.000000000000000E+02
(PID.TID 0000.0001)     ;
(PID.TID 0000.0001) viscA4  =   /* Lateral biharmonic viscosity ( m^4/s ) */
(PID.TID 0000.0001)                 0.000000000000000E+00
(PID.TID 0000.0001)     ;
(PID.TID 0000.0001) no_slip_sides =  /* Viscous BCs: No-slip sides */
(PID.TID 0000.0001)                   T
(PID.TID 0000.0001)     ;
(PID.TID 0000.0001) sideDragFactor = /* side-drag scaling factor (non-dim) */
(PID.TID 0000.0001)                 2.000000000000000E+00
(PID.TID 0000.0001)     ;
(PID.TID 0000.0001) viscArNr = /* vertical profile of vertical viscosity ( m^2/s )*/
(PID.TID 0000.0001)                 0.000000000000000E+00       /* K =  1 */
(PID.TID 0000.0001)     ;
(PID.TID 0000.0001) no_slip_bottom =  /* Viscous BCs: No-slip bottom */
(PID.TID 0000.0001)                   T
(PID.TID 0000.0001)     ;
(PID.TID 0000.0001) bottomVisc_pCell = /* Partial-cell in bottom Visc. BC */
(PID.TID 0000.0001)                   F
(PID.TID 0000.0001)     ;
(PID.TID 0000.0001) bottomDragLinear = /* linear bottom-drag coefficient ( m/s ) */
(PID.TID 0000.0001)                 0.000000000000000E+00
(PID.TID 0000.0001)     ;
(PID.TID 0000.0001) bottomDragQuadratic = /* quadratic bottom-drag coefficient (-) */
(PID.TID 0000.0001)                 0.000000000000000E+00
(PID.TID 0000.0001)     ;
(PID.TID 0000.0001) selectBotDragQuadr = /* select quadratic bottom drag options */
(PID.TID 0000.0001)                      -1
(PID.TID 0000.0001)     ;
(PID.TID 0000.0001) diffKhT =   /* Laplacian diffusion of heat laterally ( m^2/s ) */
(PID.TID 0000.0001)                 0.000000000000000E+00
(PID.TID 0000.0001)     ;
(PID.TID 0000.0001) diffK4T =   /* Biharmonic diffusion of heat laterally ( m^4/s ) */
(PID.TID 0000.0001)                 0.000000000000000E+00
(PID.TID 0000.0001)     ;
(PID.TID 0000.0001) diffKhS =   /* Laplacian diffusion of salt laterally ( m^2/s ) */
(PID.TID 0000.0001)                 0.000000000000000E+00
(PID.TID 0000.0001)     ;
(PID.TID 0000.0001) diffK4S =   /* Biharmonic diffusion of salt laterally ( m^4/s ) */
(PID.TID 0000.0001)                 0.000000000000000E+00
(PID.TID 0000.0001)     ;
(PID.TID 0000.0001) diffKrNrT = /* vertical profile of vertical diffusion of Temp ( m^2/s )*/
(PID.TID 0000.0001)                 0.000000000000000E+00       /* K =  1 */
(PID.TID 0000.0001)     ;
(PID.TID 0000.0001) diffKrNrS = /* vertical profile of vertical diffusion of Salt ( m^2/s )*/
(PID.TID 0000.0001)                 0.000000000000000E+00       /* K =  1 */
(PID.TID 0000.0001)     ;
(PID.TID 0000.0001) diffKrBL79surf = /* Surface diffusion for Bryan and Lewis 79 ( m^2/s ) */
(PID.TID 0000.0001)                 0.000000000000000E+00
(PID.TID 0000.0001)     ;
(PID.TID 0000.0001) diffKrBL79deep = /* Deep diffusion for Bryan and Lewis 1979 ( m^2/s ) */
(PID.TID 0000.0001)                 0.000000000000000E+00
(PID.TID 0000.0001)     ;
(PID.TID 0000.0001) diffKrBL79scl = /* Depth scale for Bryan and Lewis 1979 ( m ) */
(PID.TID 0000.0001)                 2.000000000000000E+02
(PID.TID 0000.0001)     ;
(PID.TID 0000.0001) diffKrBL79Ho = /* Turning depth for Bryan and Lewis 1979 ( m ) */
(PID.TID 0000.0001)                -2.000000000000000E+03
(PID.TID 0000.0001)     ;
(PID.TID 0000.0001) ivdc_kappa = /* Implicit Vertical Diffusivity for Convection ( m^2/s) */
(PID.TID 0000.0001)                 0.000000000000000E+00
(PID.TID 0000.0001)     ;
(PID.TID 0000.0001) hMixCriteria=  /* Criteria for mixed-layer diagnostic */
(PID.TID 0000.0001)                -8.000000000000000E-01
(PID.TID 0000.0001)     ;
(PID.TID 0000.0001) dRhoSmall =  /* Parameter for mixed-layer diagnostic */
(PID.TID 0000.0001)                 1.000000000000000E-06
(PID.TID 0000.0001)     ;
(PID.TID 0000.0001) hMixSmooth=  /* Smoothing parameter for mixed-layer diagnostic */
(PID.TID 0000.0001)                 0.000000000000000E+00
(PID.TID 0000.0001)     ;
(PID.TID 0000.0001) eosType =  /* Type of Equation of State */
(PID.TID 0000.0001)               'LINEAR'
(PID.TID 0000.0001)     ;
(PID.TID 0000.0001) tAlpha = /* Linear EOS thermal expansion coefficient ( 1/oC ) */
(PID.TID 0000.0001)                 2.000000000000000E-04
(PID.TID 0000.0001)     ;
(PID.TID 0000.0001) sBeta  = /* Linear EOS haline contraction coefficient ( 1/psu ) */
(PID.TID 0000.0001)                 7.400000000000000E-04
(PID.TID 0000.0001)     ;
(PID.TID 0000.0001) rhoNil    = /* Reference density for Linear EOS ( kg/m^3 ) */
(PID.TID 0000.0001)                 9.998000000000000E+02
(PID.TID 0000.0001)     ;
(PID.TID 0000.0001) selectP_inEOS_Zc = /* select pressure to use in EOS (0,1,2,3) */
(PID.TID 0000.0001)                       0
(PID.TID 0000.0001)     0= -g*rhoConst*z ; 1= pRef (from tRef,sRef); 2= Hyd P ; 3= Hyd+NH P
(PID.TID 0000.0001)     ;
(PID.TID 0000.0001) surf_pRef = /* Surface reference pressure ( Pa ) */
(PID.TID 0000.0001)                 1.013250000000000E+05
(PID.TID 0000.0001)     ;
(PID.TID 0000.0001) HeatCapacity_Cp =  /* Specific heat capacity ( J/kg/K ) */
(PID.TID 0000.0001)                 3.994000000000000E+03
(PID.TID 0000.0001)     ;
(PID.TID 0000.0001) celsius2K = /* 0 degree Celsius converted to Kelvin ( K ) */
(PID.TID 0000.0001)                 2.731500000000000E+02
(PID.TID 0000.0001)     ;
(PID.TID 0000.0001) rhoConst  = /* Reference density (Boussinesq)  ( kg/m^3 ) */
(PID.TID 0000.0001)                 1.027000000000000E+03
(PID.TID 0000.0001)     ;
(PID.TID 0000.0001) rhoFacC = /* normalized Reference density @ cell-Center (-) */
(PID.TID 0000.0001)                 1.000000000000000E+00       /* K =  1 */
(PID.TID 0000.0001)     ;
(PID.TID 0000.0001) rhoFacF = /* normalized Reference density @ W-Interface (-) */
(PID.TID 0000.0001)     2 @  1.000000000000000E+00              /* K =  1:  2 */
(PID.TID 0000.0001)     ;
(PID.TID 0000.0001) rhoConstFresh = /* Fresh-water reference density ( kg/m^3 ) */
(PID.TID 0000.0001)                 1.027000000000000E+03
(PID.TID 0000.0001)     ;
(PID.TID 0000.0001) gravity =   /* Gravitational acceleration ( m/s^2 ) */
(PID.TID 0000.0001)                 9.810000000000000E+00
(PID.TID 0000.0001)     ;
(PID.TID 0000.0001) gBaro =   /* Barotropic gravity ( m/s^2 ) */
(PID.TID 0000.0001)                 9.810000000000000E+00
(PID.TID 0000.0001)     ;
(PID.TID 0000.0001) gravFacC = /* gravity factor (vs surf.) @ cell-Center (-) */
(PID.TID 0000.0001)                 1.000000000000000E+00       /* K =  1 */
(PID.TID 0000.0001)     ;
(PID.TID 0000.0001) gravFacF = /* gravity factor (vs surf.) @ W-Interface (-) */
(PID.TID 0000.0001)     2 @  1.000000000000000E+00              /* K =  1:  2 */
(PID.TID 0000.0001)     ;
(PID.TID 0000.0001) rotationPeriod =   /* Rotation Period ( s ) */
(PID.TID 0000.0001)                 8.616400000000000E+04
(PID.TID 0000.0001)     ;
(PID.TID 0000.0001) omega =   /* Angular velocity ( rad/s ) */
(PID.TID 0000.0001)                 7.292123516990375E-05
(PID.TID 0000.0001)     ;
(PID.TID 0000.0001) f0 =   /* Reference coriolis parameter ( 1/s ) */
(PID.TID 0000.0001)                 6.999999999999999E-05
(PID.TID 0000.0001)     ;
(PID.TID 0000.0001) beta =   /* Beta ( 1/(m.s) ) */
(PID.TID 0000.0001)                 2.000000000000000E-11
(PID.TID 0000.0001)     ;
(PID.TID 0000.0001) fPrime =   /* Second coriolis parameter ( 1/s ) */
(PID.TID 0000.0001)                 0.000000000000000E+00
(PID.TID 0000.0001)     ;
(PID.TID 0000.0001) rigidLid =   /* Rigid lid on/off flag */
(PID.TID 0000.0001)                   F
(PID.TID 0000.0001)     ;
(PID.TID 0000.0001) implicitFreeSurface =   /* Implicit free surface on/off flag */
(PID.TID 0000.0001)                   T
(PID.TID 0000.0001)     ;
(PID.TID 0000.0001) freeSurfFac =   /* Implicit free surface factor */
(PID.TID 0000.0001)                 1.000000000000000E+00
(PID.TID 0000.0001)     ;
(PID.TID 0000.0001) implicSurfPress =  /* Surface Pressure implicit factor (0-1)*/
(PID.TID 0000.0001)                 1.000000000000000E+00
(PID.TID 0000.0001)     ;
(PID.TID 0000.0001) implicDiv2DFlow =  /* Barot. Flow Div. implicit factor (0-1)*/
(PID.TID 0000.0001)                 1.000000000000000E+00
(PID.TID 0000.0001)     ;
(PID.TID 0000.0001) uniformLin_PhiSurf = /* use uniform Bo_surf on/off flag*/
(PID.TID 0000.0001)                   T
(PID.TID 0000.0001)     ;
(PID.TID 0000.0001) uniformFreeSurfLev = /* free-surface level-index is uniform */
(PID.TID 0000.0001)                   T
(PID.TID 0000.0001)     ;
(PID.TID 0000.0001) hFacMin =   /* minimum partial cell factor (hFac) */
(PID.TID 0000.0001)                 1.000000000000000E-01
(PID.TID 0000.0001)     ;
(PID.TID 0000.0001) hFacMinDr = /* minimum partial cell thickness ( m) */
(PID.TID 0000.0001)                 0.000000000000000E+00
(PID.TID 0000.0001)     ;
(PID.TID 0000.0001) exactConserv =  /* Exact Volume Conservation on/off flag*/
(PID.TID 0000.0001)                   F
(PID.TID 0000.0001)     ;
(PID.TID 0000.0001) linFSConserveTr = /* Tracer correction for Lin Free Surface on/off flag*/
(PID.TID 0000.0001)                   F
(PID.TID 0000.0001)     ;
(PID.TID 0000.0001) nonlinFreeSurf = /* Non-linear Free Surf. options (-1,0,1,2,3)*/
(PID.TID 0000.0001)                       0
(PID.TID 0000.0001)      -1,0= Off ; 1,2,3= On, 2=+rescale gU,gV, 3=+update cg2d solv.
(PID.TID 0000.0001)     ;
(PID.TID 0000.0001) hFacInf =   /* lower threshold for hFac (nonlinFreeSurf only)*/
(PID.TID 0000.0001)                 2.000000000000000E-01
(PID.TID 0000.0001)     ;
(PID.TID 0000.0001) hFacSup =   /* upper threshold for hFac (nonlinFreeSurf only)*/
(PID.TID 0000.0001)                 2.000000000000000E+00
(PID.TID 0000.0001)     ;
(PID.TID 0000.0001) select_rStar = /* r* Vertical coord. options (=0 r coord.; >0 uses r*)*/
(PID.TID 0000.0001)                       0
(PID.TID 0000.0001)     ;
(PID.TID 0000.0001) useRealFreshWaterFlux = /* Real Fresh Water Flux on/off flag*/
(PID.TID 0000.0001)                   F
(PID.TID 0000.0001)     ;
(PID.TID 0000.0001) temp_EvPrRn = /* Temp. of Evap/Prec/R (UNSET=use local T)(oC)*/
(PID.TID 0000.0001)                 1.234567000000000E+05
(PID.TID 0000.0001)     ;
(PID.TID 0000.0001) salt_EvPrRn = /* Salin. of Evap/Prec/R (UNSET=use local S)(psu)*/
(PID.TID 0000.0001)                 0.000000000000000E+00
(PID.TID 0000.0001)     ;
(PID.TID 0000.0001) selectAddFluid = /* option for mass source/sink of fluid (=0: off) */
(PID.TID 0000.0001)                       0
(PID.TID 0000.0001)     ;
(PID.TID 0000.0001) temp_addMass = /* Temp. of addMass array (UNSET=use local T)(oC)*/
(PID.TID 0000.0001)                 1.234567000000000E+05
(PID.TID 0000.0001)     ;
(PID.TID 0000.0001) salt_addMass = /* Salin. of addMass array (UNSET=use local S)(psu)*/
(PID.TID 0000.0001)                 0.000000000000000E+00
(PID.TID 0000.0001)     ;
(PID.TID 0000.0001) convertFW2Salt = /* convert F.W. Flux to Salt Flux (-1=use local S)(psu)*/
(PID.TID 0000.0001)                 3.500000000000000E+01
(PID.TID 0000.0001)     ;
(PID.TID 0000.0001) use3Dsolver = /* use 3-D pressure solver on/off flag */
(PID.TID 0000.0001)                   F
(PID.TID 0000.0001)     ;
(PID.TID 0000.0001) nonHydrostatic =  /* Non-Hydrostatic on/off flag */
(PID.TID 0000.0001)                   F
(PID.TID 0000.0001)     ;
(PID.TID 0000.0001) nh_Am2 = /* Non-Hydrostatic terms scaling factor */
(PID.TID 0000.0001)                 1.000000000000000E+00
(PID.TID 0000.0001)     ;
(PID.TID 0000.0001) implicitNHPress = /* Non-Hyd Pressure implicit factor (0-1)*/
(PID.TID 0000.0001)                 1.000000000000000E+00
(PID.TID 0000.0001)     ;
(PID.TID 0000.0001) selectNHfreeSurf = /* Non-Hyd (free-)Surface option */
(PID.TID 0000.0001)                       0
(PID.TID 0000.0001)     ;
(PID.TID 0000.0001) quasiHydrostatic = /* Quasi-Hydrostatic on/off flag */
(PID.TID 0000.0001)                   F
(PID.TID 0000.0001)     ;
(PID.TID 0000.0001) calc_wVelocity = /* vertical velocity calculation on/off flag */
(PID.TID 0000.0001)                   T
(PID.TID 0000.0001)     ;
(PID.TID 0000.0001) momStepping =  /* Momentum equation on/off flag */
(PID.TID 0000.0001)                   T
(PID.TID 0000.0001)     ;
(PID.TID 0000.0001) vectorInvariantMomentum= /* Vector-Invariant Momentum on/off */
(PID.TID 0000.0001)                   F
(PID.TID 0000.0001)     ;
(PID.TID 0000.0001) momAdvection =  /* Momentum advection on/off flag */
(PID.TID 0000.0001)                   T
(PID.TID 0000.0001)     ;
(PID.TID 0000.0001) momViscosity =  /* Momentum viscosity on/off flag */
(PID.TID 0000.0001)                   T
(PID.TID 0000.0001)     ;
(PID.TID 0000.0001) momImplVertAdv= /* Momentum implicit vert. advection on/off*/
(PID.TID 0000.0001)                   F
(PID.TID 0000.0001)     ;
(PID.TID 0000.0001) implicitViscosity = /* Implicit viscosity on/off flag */
(PID.TID 0000.0001)                   F
(PID.TID 0000.0001)     ;
(PID.TID 0000.0001) selectImplicitDrag= /* Implicit bot Drag options (0,1,2)*/
(PID.TID 0000.0001)                       0
(PID.TID 0000.0001)     0= Expl. ; 1= Impl. on provis. Vel ; 2= Fully Impl (with surf.P)
(PID.TID 0000.0001)     ;
(PID.TID 0000.0001) metricTerms =  /* metric-Terms on/off flag */
(PID.TID 0000.0001)                   F
(PID.TID 0000.0001)     ;
(PID.TID 0000.0001) useNHMTerms = /* Non-Hydrostatic Metric-Terms on/off */
(PID.TID 0000.0001)                   F
(PID.TID 0000.0001)     ;
(PID.TID 0000.0001) selectCoriMap = /* Coriolis Map options (0,1,2,3)*/
(PID.TID 0000.0001)                       1
(PID.TID 0000.0001)     0= f-Plane ; 1= Beta-Plane ; 2= Spherical ; 3= read from file
(PID.TID 0000.0001)     ;
(PID.TID 0000.0001) use3dCoriolis = /* 3-D Coriolis on/off flag */
(PID.TID 0000.0001)                   F
(PID.TID 0000.0001)     ;
(PID.TID 0000.0001) useCoriolis =  /* Coriolis on/off flag */
(PID.TID 0000.0001)                   T
(PID.TID 0000.0001)     ;
(PID.TID 0000.0001) useCDscheme =  /* CD scheme on/off flag */
(PID.TID 0000.0001)                   F
(PID.TID 0000.0001)     ;
(PID.TID 0000.0001) selectCoriScheme= /* Scheme selector for Coriolis-Term */
(PID.TID 0000.0001)                       0
(PID.TID 0000.0001)    = 0 : original discretization (simple averaging, no hFac)
(PID.TID 0000.0001)    = 1 : Wet-point averaging (Jamar & Ozer 1986)
(PID.TID 0000.0001)    = 2 : energy conserving scheme (no hFac weight)
(PID.TID 0000.0001)    = 3 : energy conserving scheme using Wet-point averaging
(PID.TID 0000.0001)     ;
(PID.TID 0000.0001) momForcing =  /* Momentum forcing on/off flag */
(PID.TID 0000.0001)                   T
(PID.TID 0000.0001)     ;
(PID.TID 0000.0001) momTidalForcing = /* Momentum Tidal forcing on/off flag */
(PID.TID 0000.0001)                   T
(PID.TID 0000.0001)     ;
(PID.TID 0000.0001) momPressureForcing =  /* Momentum pressure term on/off flag */
(PID.TID 0000.0001)                   T
(PID.TID 0000.0001)     ;
(PID.TID 0000.0001) implicitIntGravWave= /* Implicit Internal Gravity Wave flag */
(PID.TID 0000.0001)                   F
(PID.TID 0000.0001)     ;
(PID.TID 0000.0001) staggerTimeStep =    /* Stagger time stepping on/off flag */
(PID.TID 0000.0001)                   F
(PID.TID 0000.0001)     ;
(PID.TID 0000.0001) doResetHFactors = /* reset thickness factors @ each time-step */
(PID.TID 0000.0001)                   F
(PID.TID 0000.0001)     ;
(PID.TID 0000.0001) multiDimAdvection =  /* enable/disable Multi-Dim Advection */
(PID.TID 0000.0001)                   T
(PID.TID 0000.0001)     ;
(PID.TID 0000.0001) useMultiDimAdvec =   /* Multi-Dim Advection is/is-not used */
(PID.TID 0000.0001)                   F
(PID.TID 0000.0001)     ;
(PID.TID 0000.0001) implicitDiffusion = /* Implicit Diffusion on/off flag */
(PID.TID 0000.0001)                   F
(PID.TID 0000.0001)     ;
(PID.TID 0000.0001) tempStepping =  /* Temperature equation on/off flag */
(PID.TID 0000.0001)                   F
(PID.TID 0000.0001)     ;
(PID.TID 0000.0001) tempAdvection = /* Temperature advection on/off flag */
(PID.TID 0000.0001)                   F
(PID.TID 0000.0001)     ;
(PID.TID 0000.0001) tempImplVertAdv = /* Temp. implicit vert. advection on/off */
(PID.TID 0000.0001)                   F
(PID.TID 0000.0001)     ;
(PID.TID 0000.0001) tempForcing  =  /* Temperature forcing on/off flag */
(PID.TID 0000.0001)                   F
(PID.TID 0000.0001)     ;
(PID.TID 0000.0001) doThetaClimRelax = /* apply SST relaxation on/off flag */
(PID.TID 0000.0001)                   F
(PID.TID 0000.0001)     ;
(PID.TID 0000.0001) tempIsActiveTr = /* Temp. is a dynamically Active Tracer */
(PID.TID 0000.0001)                   F
(PID.TID 0000.0001)     ;
(PID.TID 0000.0001) saltStepping =  /* Salinity equation on/off flag */
(PID.TID 0000.0001)                   F
(PID.TID 0000.0001)     ;
(PID.TID 0000.0001) saltAdvection = /* Salinity advection on/off flag */
(PID.TID 0000.0001)                   F
(PID.TID 0000.0001)     ;
(PID.TID 0000.0001) saltImplVertAdv = /* Sali. implicit vert. advection on/off */
(PID.TID 0000.0001)                   F
(PID.TID 0000.0001)     ;
(PID.TID 0000.0001) saltForcing  =  /* Salinity forcing on/off flag */
(PID.TID 0000.0001)                   F
(PID.TID 0000.0001)     ;
(PID.TID 0000.0001) doSaltClimRelax = /* apply SSS relaxation on/off flag */
(PID.TID 0000.0001)                   F
(PID.TID 0000.0001)     ;
(PID.TID 0000.0001) saltIsActiveTr = /* Salt  is a dynamically Active Tracer */
(PID.TID 0000.0001)                   F
(PID.TID 0000.0001)     ;
(PID.TID 0000.0001)  readBinaryPrec = /* Precision used for reading binary files */
(PID.TID 0000.0001)                      32
(PID.TID 0000.0001)     ;
(PID.TID 0000.0001) writeBinaryPrec = /* Precision used for writing binary files */
(PID.TID 0000.0001)                      32
(PID.TID 0000.0001)     ;
(PID.TID 0000.0001)  rwSuffixType =   /* select format of mds file suffix */
(PID.TID 0000.0001)                       0
(PID.TID 0000.0001)    = 0 : myIter (I10.10) ;   = 1 : 100*myTime (100th sec) ;
(PID.TID 0000.0001)    = 2 : myTime (seconds);   = 3 : myTime/360 (10th of hr);
(PID.TID 0000.0001)    = 4 : myTime/3600 (hours)
(PID.TID 0000.0001)     ;
(PID.TID 0000.0001)  globalFiles = /* write "global" (=not per tile) files */
(PID.TID 0000.0001)                   F
(PID.TID 0000.0001)     ;
(PID.TID 0000.0001)  useSingleCpuIO = /* only master MPI process does I/O */
(PID.TID 0000.0001)                   T
(PID.TID 0000.0001)     ;
(PID.TID 0000.0001)  useSingleCpuInput = /* only master process reads input */
(PID.TID 0000.0001)                   T
(PID.TID 0000.0001)     ;
(PID.TID 0000.0001) /* debLev[*]  : level of debug & auxiliary message printing */
(PID.TID 0000.0001) debLevZero =  0 ; /* level of disabled aux. msg printing */
(PID.TID 0000.0001)    debLevA =  1 ; /* level of minimum  aux. msg printing */
(PID.TID 0000.0001)    debLevB =  2 ; /* level of low aux. print (report read-file opening)*/
(PID.TID 0000.0001)    debLevC =  3 ; /* level of moderate debug prt (most pkgs debug msg) */
(PID.TID 0000.0001)    debLevD =  4 ; /* level of enhanced debug prt (add DEBUG_STATS prt) */
(PID.TID 0000.0001)    debLevE =  5 ; /* level of extensive debug printing */
(PID.TID 0000.0001) debugLevel =  /* select debug printing level */
(PID.TID 0000.0001)                       2
(PID.TID 0000.0001)     ;
(PID.TID 0000.0001)  plotLevel =  /* select PLOT_FIELD printing level */
(PID.TID 0000.0001)                       2
(PID.TID 0000.0001)     ;
(PID.TID 0000.0001) //
(PID.TID 0000.0001) // Elliptic solver(s) paramters ( PARM02 in namelist )
(PID.TID 0000.0001) //
(PID.TID 0000.0001) cg2dMaxIters =   /* Upper limit on 2d con. grad iterations  */
(PID.TID 0000.0001)                    1000
(PID.TID 0000.0001)     ;
(PID.TID 0000.0001) cg2dChkResFreq =   /* 2d con. grad convergence test frequency */
(PID.TID 0000.0001)                       1
(PID.TID 0000.0001)     ;
(PID.TID 0000.0001) cg2dUseMinResSol= /* use cg2d last-iter(=0) / min-resid.(=1) solution */
(PID.TID 0000.0001)                       0
(PID.TID 0000.0001)     ;
(PID.TID 0000.0001) cg2dTargetResidual =   /* 2d con. grad target residual  */
(PID.TID 0000.0001)                 1.000000000000000E-07
(PID.TID 0000.0001)     ;
(PID.TID 0000.0001) cg2dTargetResWunit =   /* CG2d target residual [W units] */
(PID.TID 0000.0001)                -1.000000000000000E+00
(PID.TID 0000.0001)     ;
(PID.TID 0000.0001) cg2dPreCondFreq =   /* Freq. for updating cg2d preconditioner */
(PID.TID 0000.0001)                       1
(PID.TID 0000.0001)     ;
(PID.TID 0000.0001) useSRCGSolver =  /* use single reduction CG solver(s) */
(PID.TID 0000.0001)                   F
(PID.TID 0000.0001)     ;
(PID.TID 0000.0001) printResidualFreq = /* Freq. for printing CG residual */
(PID.TID 0000.0001)                       0
(PID.TID 0000.0001)     ;
(PID.TID 0000.0001) //
(PID.TID 0000.0001) // Time stepping paramters ( PARM03 in namelist )
(PID.TID 0000.0001) //
(PID.TID 0000.0001) deltaTMom =   /* Momentum equation timestep ( s ) */
(PID.TID 0000.0001)                 5.400000000000000E+03
(PID.TID 0000.0001)     ;
(PID.TID 0000.0001) deltaTFreeSurf = /* FreeSurface equation timestep ( s ) */
(PID.TID 0000.0001)                 5.400000000000000E+03
(PID.TID 0000.0001)     ;
(PID.TID 0000.0001) dTtracerLev =  /* Tracer equation timestep ( s ) */
(PID.TID 0000.0001)                 5.400000000000000E+03       /* K =  1 */
(PID.TID 0000.0001)     ;
(PID.TID 0000.0001) deltaTClock  =   /* Model clock timestep ( s ) */
(PID.TID 0000.0001)                 5.400000000000000E+03
(PID.TID 0000.0001)     ;
(PID.TID 0000.0001) cAdjFreq =   /* Convective adjustment interval ( s ) */
(PID.TID 0000.0001)                 0.000000000000000E+00
(PID.TID 0000.0001)     ;
(PID.TID 0000.0001) momForcingOutAB = /* =1: take Momentum Forcing out of Adams-Bash. stepping */
(PID.TID 0000.0001)                       0
(PID.TID 0000.0001)     ;
(PID.TID 0000.0001) tracForcingOutAB = /* =1: take T,S,pTr Forcing out of Adams-Bash. stepping */
(PID.TID 0000.0001)                       0
(PID.TID 0000.0001)     ;
(PID.TID 0000.0001) momDissip_In_AB = /* put Dissipation Tendency in Adams-Bash. stepping */
(PID.TID 0000.0001)                   T
(PID.TID 0000.0001)     ;
(PID.TID 0000.0001) doAB_onGtGs = /* apply AB on Tendencies (rather than on T,S)*/
(PID.TID 0000.0001)                   T
(PID.TID 0000.0001)     ;
(PID.TID 0000.0001) abEps =   /* Adams-Bashforth-2 stabilizing weight */
(PID.TID 0000.0001)                 1.000000000000000E-02
(PID.TID 0000.0001)     ;
(PID.TID 0000.0001) applyExchUV_early = /* Apply EXCH to U,V earlier in time-step */
(PID.TID 0000.0001)                   F
(PID.TID 0000.0001)     ;
(PID.TID 0000.0001) pickupStrictlyMatch= /* stop if pickup do not strictly match */
(PID.TID 0000.0001)                   T
(PID.TID 0000.0001)     ;
(PID.TID 0000.0001) nIter0   =   /* Run starting timestep number */
(PID.TID 0000.0001)                       0
(PID.TID 0000.0001)     ;
(PID.TID 0000.0001) nTimeSteps = /* Number of timesteps */
(PID.TID 0000.0001)                    5824
(PID.TID 0000.0001)     ;
(PID.TID 0000.0001) nEndIter =   /* Run ending timestep number */
(PID.TID 0000.0001)                    5824
(PID.TID 0000.0001)     ;
(PID.TID 0000.0001) baseTime =   /* Model base time ( s ) */
(PID.TID 0000.0001)                 0.000000000000000E+00
(PID.TID 0000.0001)     ;
(PID.TID 0000.0001) startTime =  /* Run start time ( s ) */
(PID.TID 0000.0001)                 0.000000000000000E+00
(PID.TID 0000.0001)     ;
(PID.TID 0000.0001) endTime  =   /* Integration ending time ( s ) */
(PID.TID 0000.0001)                 3.144960000000000E+07
(PID.TID 0000.0001)     ;
(PID.TID 0000.0001) pChkPtFreq = /* Permanent restart/pickup file interval ( s ) */
(PID.TID 0000.0001)                 3.110400000000000E+07
(PID.TID 0000.0001)     ;
(PID.TID 0000.0001) chkPtFreq  = /* Rolling restart/pickup file interval ( s ) */
(PID.TID 0000.0001)                 2.592000000000000E+07
(PID.TID 0000.0001)     ;
(PID.TID 0000.0001) pickup_write_mdsio =   /* Model IO flag. */
(PID.TID 0000.0001)                   T
(PID.TID 0000.0001)     ;
(PID.TID 0000.0001) pickup_read_mdsio =   /* Model IO flag. */
(PID.TID 0000.0001)                   T
(PID.TID 0000.0001)     ;
(PID.TID 0000.0001) writePickupAtEnd =   /* Model IO flag. */
(PID.TID 0000.0001)                   T
(PID.TID 0000.0001)     ;
(PID.TID 0000.0001) dumpFreq =   /* Model state write out interval ( s ). */
(PID.TID 0000.0001)                 8.640000000000000E+05
(PID.TID 0000.0001)     ;
(PID.TID 0000.0001) dumpInitAndLast= /* write out Initial & Last iter. model state */
(PID.TID 0000.0001)                   T
(PID.TID 0000.0001)     ;
(PID.TID 0000.0001) snapshot_mdsio =   /* Model IO flag. */
(PID.TID 0000.0001)                   T
(PID.TID 0000.0001)     ;
(PID.TID 0000.0001) monitorFreq =   /* Monitor output interval ( s ). */
(PID.TID 0000.0001)                 8.640000000000000E+04
(PID.TID 0000.0001)     ;
(PID.TID 0000.0001) monitorSelect = /* select group of variables to monitor */
(PID.TID 0000.0001)                       2
(PID.TID 0000.0001)     ;
(PID.TID 0000.0001) monitor_stdio =   /* Model IO flag. */
(PID.TID 0000.0001)                   T
(PID.TID 0000.0001)     ;
(PID.TID 0000.0001) externForcingPeriod =   /* forcing period (s) */
(PID.TID 0000.0001)                 0.000000000000000E+00
(PID.TID 0000.0001)     ;
(PID.TID 0000.0001) externForcingCycle =   /* period of the cyle (s). */
(PID.TID 0000.0001)                 0.000000000000000E+00
(PID.TID 0000.0001)     ;
(PID.TID 0000.0001) tauThetaClimRelax =   /* relaxation time scale (s) */
(PID.TID 0000.0001)                 0.000000000000000E+00
(PID.TID 0000.0001)     ;
(PID.TID 0000.0001) tauSaltClimRelax =   /* relaxation time scale (s) */
(PID.TID 0000.0001)                 0.000000000000000E+00
(PID.TID 0000.0001)     ;
(PID.TID 0000.0001) latBandClimRelax =   /* max. Lat. where relaxation */
(PID.TID 0000.0001)                 3.720000000000000E+06
(PID.TID 0000.0001)     ;
(PID.TID 0000.0001) //
(PID.TID 0000.0001) // Gridding paramters ( PARM04 in namelist )
(PID.TID 0000.0001) //
(PID.TID 0000.0001) usingCartesianGrid = /* Cartesian coordinates flag ( True/False ) */
(PID.TID 0000.0001)                   T
(PID.TID 0000.0001)     ;
(PID.TID 0000.0001) usingCylindricalGrid = /* Cylindrical coordinates flag ( True/False ) */
(PID.TID 0000.0001)                   F
(PID.TID 0000.0001)     ;
(PID.TID 0000.0001) usingSphericalPolarGrid = /* Spherical coordinates flag ( True/False ) */
(PID.TID 0000.0001)                   F
(PID.TID 0000.0001)     ;
(PID.TID 0000.0001) usingCurvilinearGrid = /* Curvilinear coordinates flag ( True/False ) */
(PID.TID 0000.0001)                   F
(PID.TID 0000.0001)     ;
(PID.TID 0000.0001) useMin4hFacEdges = /* set hFacW,S as minimum of adjacent hFacC factor */
(PID.TID 0000.0001)                   F
(PID.TID 0000.0001)     ;
(PID.TID 0000.0001) interViscAr_pCell = /* account for partial-cell in interior vert. viscosity */
(PID.TID 0000.0001)                   F
(PID.TID 0000.0001)     ;
(PID.TID 0000.0001) interDiffKr_pCell = /* account for partial-cell in interior vert. diffusion */
(PID.TID 0000.0001)                   F
(PID.TID 0000.0001)     ;
(PID.TID 0000.0001) pCellMix_select = /* option to enhance mixing near surface & bottom */
(PID.TID 0000.0001)                       0
(PID.TID 0000.0001)     ;
(PID.TID 0000.0001) selectSigmaCoord = /* Hybrid-Sigma Vert. Coordinate option */
(PID.TID 0000.0001)                       0
(PID.TID 0000.0001)     ;
(PID.TID 0000.0001) rSigmaBnd = /* r/sigma transition ( units of r ==  m ) */
(PID.TID 0000.0001)                 1.234567000000000E+05
(PID.TID 0000.0001)     ;
(PID.TID 0000.0001) rkSign =   /* index orientation relative to vertical coordinate */
(PID.TID 0000.0001)                -1.000000000000000E+00
(PID.TID 0000.0001)     ;
(PID.TID 0000.0001) gravitySign = /* gravity orientation relative to vertical coordinate */
(PID.TID 0000.0001)                -1.000000000000000E+00
(PID.TID 0000.0001)     ;
(PID.TID 0000.0001) seaLev_Z =  /* reference height of sea-level [m] */
(PID.TID 0000.0001)                 0.000000000000000E+00
(PID.TID 0000.0001)     ;
(PID.TID 0000.0001) top_Pres =  /* reference pressure at the top [Pa] */
(PID.TID 0000.0001)                 0.000000000000000E+00
(PID.TID 0000.0001)     ;
(PID.TID 0000.0001) mass2rUnit = /* convert mass per unit area [kg/m2] to r-units [m] */
(PID.TID 0000.0001)                 9.737098344693282E-04
(PID.TID 0000.0001)     ;
(PID.TID 0000.0001) rUnit2mass = /* convert r-units [m] to mass per unit area [kg/m2] */
(PID.TID 0000.0001)                 1.027000000000000E+03
(PID.TID 0000.0001)     ;
(PID.TID 0000.0001) drC =   /* C spacing ( units of r ) */
(PID.TID 0000.0001)     2 @  2.500000000000000E+03              /* K =  1:  2 */
(PID.TID 0000.0001)     ;
(PID.TID 0000.0001) drF =   /* W spacing ( units of r ) */
(PID.TID 0000.0001)                 5.000000000000000E+03       /* K =  1 */
(PID.TID 0000.0001)     ;
(PID.TID 0000.0001) delX = /* U spacing ( m - cartesian, degrees - spherical ) */
(PID.TID 0000.0001)   248 @  5.000000000000000E+03              /* I =  1:248 */
(PID.TID 0000.0001)     ;
(PID.TID 0000.0001) delY = /* V spacing ( m - cartesian, degrees - spherical ) */
(PID.TID 0000.0001)   248 @  5.000000000000000E+03              /* J =  1:248 */
(PID.TID 0000.0001)     ;
(PID.TID 0000.0001) xgOrigin = /* X-axis origin of West  edge (cartesian: m, lat-lon: deg) */
(PID.TID 0000.0001)                -5.000000000000000E+03
(PID.TID 0000.0001)     ;
(PID.TID 0000.0001) ygOrigin = /* Y-axis origin of South edge (cartesian: m, lat-lon: deg) */
(PID.TID 0000.0001)                -5.000000000000000E+03
(PID.TID 0000.0001)     ;
(PID.TID 0000.0001) rSphere =  /* Radius ( ignored - cartesian, m - spherical ) */
(PID.TID 0000.0001)                 6.370000000000000E+06
(PID.TID 0000.0001)     ;
(PID.TID 0000.0001) deepAtmosphere = /* Deep/Shallow Atmosphere flag (True/False) */
(PID.TID 0000.0001)                   F
(PID.TID 0000.0001)     ;
(PID.TID 0000.0001) xC =  /* xC(:,1,:,1) : P-point X coord ( deg. or m if cartesian) */
(PID.TID 0000.0001)                -2.500000000000000E+03,      /* I =  1 */
(PID.TID 0000.0001)                 2.500000000000000E+03,      /* I =  2 */
(PID.TID 0000.0001)                 7.500000000000000E+03,      /* I =  3 */
(PID.TID 0000.0001)      . . .
(PID.TID 0000.0001)                 2.925000000000000E+05,      /* I = 60 */
(PID.TID 0000.0001)                 2.975000000000000E+05,      /* I = 61 */
(PID.TID 0000.0001)                 3.025000000000000E+05,      /* I = 62 */
(PID.TID 0000.0001)                 3.075000000000000E+05,      /* I = 63 */
(PID.TID 0000.0001)                 3.125000000000000E+05,      /* I = 64 */
(PID.TID 0000.0001)                 3.175000000000000E+05,      /* I = 65 */
(PID.TID 0000.0001)      . . .
(PID.TID 0000.0001)                 6.025000000000000E+05,      /* I =122 */
(PID.TID 0000.0001)                 6.075000000000000E+05,      /* I =123 */
(PID.TID 0000.0001)                 6.125000000000000E+05,      /* I =124 */
(PID.TID 0000.0001)                 6.175000000000000E+05,      /* I =125 */
(PID.TID 0000.0001)                 6.225000000000000E+05,      /* I =126 */
(PID.TID 0000.0001)                 6.275000000000000E+05,      /* I =127 */
(PID.TID 0000.0001)      . . .
(PID.TID 0000.0001)                 9.125000000000000E+05,      /* I =184 */
(PID.TID 0000.0001)                 9.175000000000000E+05,      /* I =185 */
(PID.TID 0000.0001)                 9.225000000000000E+05,      /* I =186 */
(PID.TID 0000.0001)                 9.275000000000000E+05,      /* I =187 */
(PID.TID 0000.0001)                 9.325000000000000E+05,      /* I =188 */
(PID.TID 0000.0001)                 9.375000000000000E+05,      /* I =189 */
(PID.TID 0000.0001)      . . .
(PID.TID 0000.0001)                 1.222500000000000E+06,      /* I =246 */
(PID.TID 0000.0001)                 1.227500000000000E+06,      /* I =247 */
(PID.TID 0000.0001)                 1.232500000000000E+06       /* I =248 */
(PID.TID 0000.0001)     ;
(PID.TID 0000.0001) yC =  /* yC(1,:,1,:) : P-point Y coord ( deg. or m if cartesian) */
(PID.TID 0000.0001)                -2.500000000000000E+03,      /* J =  1 */
(PID.TID 0000.0001)                 2.500000000000000E+03,      /* J =  2 */
(PID.TID 0000.0001)                 7.500000000000000E+03,      /* J =  3 */
(PID.TID 0000.0001)      . . .
(PID.TID 0000.0001)                 2.925000000000000E+05,      /* J = 60 */
(PID.TID 0000.0001)                 2.975000000000000E+05,      /* J = 61 */
(PID.TID 0000.0001)                 3.025000000000000E+05,      /* J = 62 */
(PID.TID 0000.0001)                 3.075000000000000E+05,      /* J = 63 */
(PID.TID 0000.0001)                 3.125000000000000E+05,      /* J = 64 */
(PID.TID 0000.0001)                 3.175000000000000E+05,      /* J = 65 */
(PID.TID 0000.0001)      . . .
(PID.TID 0000.0001)                 6.025000000000000E+05,      /* J =122 */
(PID.TID 0000.0001)                 6.075000000000000E+05,      /* J =123 */
(PID.TID 0000.0001)                 6.125000000000000E+05,      /* J =124 */
(PID.TID 0000.0001)                 6.175000000000000E+05,      /* J =125 */
(PID.TID 0000.0001)                 6.225000000000000E+05,      /* J =126 */
(PID.TID 0000.0001)                 6.275000000000000E+05,      /* J =127 */
(PID.TID 0000.0001)      . . .
(PID.TID 0000.0001)                 9.125000000000000E+05,      /* J =184 */
(PID.TID 0000.0001)                 9.175000000000000E+05,      /* J =185 */
(PID.TID 0000.0001)                 9.225000000000000E+05,      /* J =186 */
(PID.TID 0000.0001)                 9.275000000000000E+05,      /* J =187 */
(PID.TID 0000.0001)                 9.325000000000000E+05,      /* J =188 */
(PID.TID 0000.0001)                 9.375000000000000E+05,      /* J =189 */
(PID.TID 0000.0001)      . . .
(PID.TID 0000.0001)                 1.222500000000000E+06,      /* J =246 */
(PID.TID 0000.0001)                 1.227500000000000E+06,      /* J =247 */
(PID.TID 0000.0001)                 1.232500000000000E+06       /* J =248 */
(PID.TID 0000.0001)     ;
(PID.TID 0000.0001) rcoord = /* P-point R coordinate (  units of r ) */
(PID.TID 0000.0001)                -2.500000000000000E+03       /* K =  1 */
(PID.TID 0000.0001)     ;
(PID.TID 0000.0001) rF =   /* W-Interf. R coordinate (  units of r ) */
(PID.TID 0000.0001)                 0.000000000000000E+00,      /* K =  1 */
(PID.TID 0000.0001)                -5.000000000000000E+03       /* K =  2 */
(PID.TID 0000.0001)     ;
(PID.TID 0000.0001) deepFacC = /* deep-model grid factor @ cell-Center (-) */
(PID.TID 0000.0001)                 1.000000000000000E+00       /* K =  1 */
(PID.TID 0000.0001)     ;
(PID.TID 0000.0001) deepFacF = /* deep-model grid factor @ W-Interface (-) */
(PID.TID 0000.0001)     2 @  1.000000000000000E+00              /* K =  1:  2 */
(PID.TID 0000.0001)     ;
(PID.TID 0000.0001) rVel2wUnit = /* convert units: rVel -> wSpeed (=1 if z-coord)*/
(PID.TID 0000.0001)     2 @  1.000000000000000E+00              /* K =  1:  2 */
(PID.TID 0000.0001)     ;
(PID.TID 0000.0001) wUnit2rVel = /* convert units: wSpeed -> rVel (=1 if z-coord)*/
(PID.TID 0000.0001)     2 @  1.000000000000000E+00              /* K =  1:  2 */
(PID.TID 0000.0001)     ;
(PID.TID 0000.0001) dBdrRef = /* Vertical grad. of reference buoyancy [(m/s/r)^2] */
(PID.TID 0000.0001)                 0.000000000000000E+00       /* K =  1 */
(PID.TID 0000.0001)     ;
(PID.TID 0000.0001) rotateGrid = /* use rotated grid ( True/False ) */
(PID.TID 0000.0001)                   F
(PID.TID 0000.0001)     ;
(PID.TID 0000.0001) phiEuler = /* Euler angle, rotation about original z-coordinate [rad] */
(PID.TID 0000.0001)                 0.000000000000000E+00
(PID.TID 0000.0001)     ;
(PID.TID 0000.0001) thetaEuler = /* Euler angle, rotation about new x-coordinate [rad] */
(PID.TID 0000.0001)                 0.000000000000000E+00
(PID.TID 0000.0001)     ;
(PID.TID 0000.0001) psiEuler = /* Euler angle, rotation about new z-coordinate [rad] */
(PID.TID 0000.0001)                 0.000000000000000E+00
(PID.TID 0000.0001)     ;
(PID.TID 0000.0001) dxF =  /* dxF(:,1,:,1) ( units: m ) */
(PID.TID 0000.0001)   248 @  5.000000000000000E+03              /* I =  1:248 */
(PID.TID 0000.0001)     ;
(PID.TID 0000.0001) dxF =  /* dxF(1,:,1,:) ( units: m ) */
(PID.TID 0000.0001)   248 @  5.000000000000000E+03              /* J =  1:248 */
(PID.TID 0000.0001)     ;
(PID.TID 0000.0001) dyF =  /* dyF(:,1,:,1) ( units: m ) */
(PID.TID 0000.0001)   248 @  5.000000000000000E+03              /* I =  1:248 */
(PID.TID 0000.0001)     ;
(PID.TID 0000.0001) dyF =  /* dyF(1,:,1,:) ( units: m ) */
(PID.TID 0000.0001)   248 @  5.000000000000000E+03              /* J =  1:248 */
(PID.TID 0000.0001)     ;
(PID.TID 0000.0001) dxG =  /* dxG(:,1,:,1) ( units: m ) */
(PID.TID 0000.0001)   248 @  5.000000000000000E+03              /* I =  1:248 */
(PID.TID 0000.0001)     ;
(PID.TID 0000.0001) dxG =  /* dxG(1,:,1,:) ( units: m ) */
(PID.TID 0000.0001)   248 @  5.000000000000000E+03              /* J =  1:248 */
(PID.TID 0000.0001)     ;
(PID.TID 0000.0001) dyG =  /* dyG(:,1,:,1) ( units: m ) */
(PID.TID 0000.0001)   248 @  5.000000000000000E+03              /* I =  1:248 */
(PID.TID 0000.0001)     ;
(PID.TID 0000.0001) dyG =  /* dyG(1,:,1,:) ( units: m ) */
(PID.TID 0000.0001)   248 @  5.000000000000000E+03              /* J =  1:248 */
(PID.TID 0000.0001)     ;
(PID.TID 0000.0001) dxC =  /* dxC(:,1,:,1) ( units: m ) */
(PID.TID 0000.0001)   248 @  5.000000000000000E+03              /* I =  1:248 */
(PID.TID 0000.0001)     ;
(PID.TID 0000.0001) dxC =  /* dxC(1,:,1,:) ( units: m ) */
(PID.TID 0000.0001)   248 @  5.000000000000000E+03              /* J =  1:248 */
(PID.TID 0000.0001)     ;
(PID.TID 0000.0001) dyC =  /* dyC(:,1,:,1) ( units: m ) */
(PID.TID 0000.0001)   248 @  5.000000000000000E+03              /* I =  1:248 */
(PID.TID 0000.0001)     ;
(PID.TID 0000.0001) dyC =  /* dyC(1,:,1,:) ( units: m ) */
(PID.TID 0000.0001)   248 @  5.000000000000000E+03              /* J =  1:248 */
(PID.TID 0000.0001)     ;
(PID.TID 0000.0001) dxV =  /* dxV(:,1,:,1) ( units: m ) */
(PID.TID 0000.0001)   248 @  5.000000000000000E+03              /* I =  1:248 */
(PID.TID 0000.0001)     ;
(PID.TID 0000.0001) dxV =  /* dxV(1,:,1,:) ( units: m ) */
(PID.TID 0000.0001)   248 @  5.000000000000000E+03              /* J =  1:248 */
(PID.TID 0000.0001)     ;
(PID.TID 0000.0001) dyU =  /* dyU(:,1,:,1) ( units: m ) */
(PID.TID 0000.0001)   248 @  5.000000000000000E+03              /* I =  1:248 */
(PID.TID 0000.0001)     ;
(PID.TID 0000.0001) dyU =  /* dyU(1,:,1,:) ( units: m ) */
(PID.TID 0000.0001)   248 @  5.000000000000000E+03              /* J =  1:248 */
(PID.TID 0000.0001)     ;
(PID.TID 0000.0001) rA  =  /* rA (:,1,:,1) ( units: m^2 ) */
(PID.TID 0000.0001)   248 @  2.500000000000000E+07              /* I =  1:248 */
(PID.TID 0000.0001)     ;
(PID.TID 0000.0001) rA  =  /* rA (1,:,1,:) ( units: m^2 ) */
(PID.TID 0000.0001)   248 @  2.500000000000000E+07              /* J =  1:248 */
(PID.TID 0000.0001)     ;
(PID.TID 0000.0001) rAw =  /* rAw(:,1,:,1) ( units: m^2 ) */
(PID.TID 0000.0001)   248 @  2.500000000000000E+07              /* I =  1:248 */
(PID.TID 0000.0001)     ;
(PID.TID 0000.0001) rAw =  /* rAw(1,:,1,:) ( units: m^2 ) */
(PID.TID 0000.0001)   248 @  2.500000000000000E+07              /* J =  1:248 */
(PID.TID 0000.0001)     ;
(PID.TID 0000.0001) rAs =  /* rAs(:,1,:,1) ( units: m^2 ) */
(PID.TID 0000.0001)   248 @  2.500000000000000E+07              /* I =  1:248 */
(PID.TID 0000.0001)     ;
(PID.TID 0000.0001) rAs =  /* rAs(1,:,1,:) ( units: m^2 ) */
(PID.TID 0000.0001)   248 @  2.500000000000000E+07              /* J =  1:248 */
(PID.TID 0000.0001)     ;
(PID.TID 0000.0001) globalArea = /* Integrated horizontal Area (m^2) */
(PID.TID 0000.0001)                 1.512900000000000E+12
(PID.TID 0000.0001)     ;
(PID.TID 0000.0001) // =======================================================
(PID.TID 0000.0001) // End of Model config. summary
(PID.TID 0000.0001) // =======================================================
(PID.TID 0000.0001) 
(PID.TID 0000.0001) == Packages configuration : Check & print summary ==
(PID.TID 0000.0001) 
(PID.TID 0000.0001) // =======================================================
(PID.TID 0000.0001) // Check Model config. (CONFIG_CHECK):
(PID.TID 0000.0001) // CONFIG_CHECK : Normal End
(PID.TID 0000.0001) // =======================================================
(PID.TID 0000.0001) 
(PID.TID 0000.0001)  MDS_READ_FIELD: opening global file: u.bin
(PID.TID 0000.0001)  MDS_READ_FIELD: opening global file: v.bin
(PID.TID 0000.0001) Start initial hydrostatic pressure computation
(PID.TID 0000.0001) Pressure is predetermined for buoyancyRelation OCEANIC
(PID.TID 0000.0001) 
(PID.TID 0000.0001) // =======================================================
(PID.TID 0000.0001) // Model current state
(PID.TID 0000.0001) // =======================================================
(PID.TID 0000.0001) 
(PID.TID 0000.0001) // =======================================================
(PID.TID 0000.0001) // Begin MONITOR dynamic field statistics
(PID.TID 0000.0001) // =======================================================
(PID.TID 0000.0001) %MON time_tsnumber                =                     0
(PID.TID 0000.0001) %MON time_secondsf                =   0.0000000000000E+00
(PID.TID 0000.0001) %MON dynstat_eta_max              =   0.0000000000000E+00
(PID.TID 0000.0001) %MON dynstat_eta_min              =   0.0000000000000E+00
(PID.TID 0000.0001) %MON dynstat_eta_mean             =   0.0000000000000E+00
(PID.TID 0000.0001) %MON dynstat_eta_sd               =   0.0000000000000E+00
(PID.TID 0000.0001) %MON dynstat_eta_del2             =   0.0000000000000E+00
(PID.TID 0000.0001) %MON dynstat_uvel_max             =   3.5192829091102E-04
(PID.TID 0000.0001) %MON dynstat_uvel_min             =  -3.4354481613263E-04
(PID.TID 0000.0001) %MON dynstat_uvel_mean            =  -5.3612772165058E-09
(PID.TID 0000.0001) %MON dynstat_uvel_sd              =   3.9878642121504E-05
(PID.TID 0000.0001) %MON dynstat_uvel_del2            =   6.8040351021122E-07
(PID.TID 0000.0001) %MON dynstat_vvel_max             =   3.2325918436982E-04
(PID.TID 0000.0001) %MON dynstat_vvel_min             =  -3.4682056866586E-04
(PID.TID 0000.0001) %MON dynstat_vvel_mean            =   1.3309303931852E-09
(PID.TID 0000.0001) %MON dynstat_vvel_sd              =   3.9935768199217E-05
(PID.TID 0000.0001) %MON dynstat_vvel_del2            =   6.8164243667077E-07
(PID.TID 0000.0001) %MON dynstat_wvel_max             =   2.3698583754594E-04
(PID.TID 0000.0001) %MON dynstat_wvel_min             =  -2.5576111784176E-04
(PID.TID 0000.0001) %MON dynstat_wvel_mean            =   8.6182272751779E-24
(PID.TID 0000.0001) %MON dynstat_wvel_sd              =   4.0087232542732E-05
(PID.TID 0000.0001) %MON dynstat_wvel_del2            =   6.6189891607988E-07
(PID.TID 0000.0001) %MON dynstat_theta_max            =   2.0000000000000E+01
(PID.TID 0000.0001) %MON dynstat_theta_min            =   2.0000000000000E+01
(PID.TID 0000.0001) %MON dynstat_theta_mean           =   2.0000000000000E+01
(PID.TID 0000.0001) %MON dynstat_theta_sd             =   0.0000000000000E+00
(PID.TID 0000.0001) %MON dynstat_theta_del2           =   0.0000000000000E+00
(PID.TID 0000.0001) %MON dynstat_salt_max             =   3.0000000000000E+01
(PID.TID 0000.0001) %MON dynstat_salt_min             =   3.0000000000000E+01
(PID.TID 0000.0001) %MON dynstat_salt_mean            =   3.0000000000000E+01
(PID.TID 0000.0001) %MON dynstat_salt_sd              =   0.0000000000000E+00
(PID.TID 0000.0001) %MON dynstat_salt_del2            =   0.0000000000000E+00
(PID.TID 0000.0001) %MON trAdv_CFL_u_max              =   0.0000000000000E+00
(PID.TID 0000.0001) %MON trAdv_CFL_v_max              =   0.0000000000000E+00
(PID.TID 0000.0001) %MON trAdv_CFL_w_max              =   0.0000000000000E+00
(PID.TID 0000.0001) %MON advcfl_uvel_max              =   3.8008255418390E-04
(PID.TID 0000.0001) %MON advcfl_vvel_max              =   3.7456621415913E-04
(PID.TID 0000.0001) %MON advcfl_wvel_max              =   5.5244401453820E-04
(PID.TID 0000.0001) %MON advcfl_W_hf_max              =   0.0000000000000E+00
(PID.TID 0000.0001) %MON pe_b_mean                    =   0.0000000000000E+00
(PID.TID 0000.0001) %MON ke_max                       =   6.1057796905056E-08
(PID.TID 0000.0001) %MON ke_mean                      =   1.5861119285765E-09
(PID.TID 0000.0001) %MON ke_vol                       =   7.5645000000000E+15
(PID.TID 0000.0001) %MON vort_r_min                   =  -2.2172964818310E-07
(PID.TID 0000.0001) %MON vort_r_max                   =   1.9719122792594E-07
(PID.TID 0000.0001) %MON vort_a_mean                  =   8.2299999999999E-05
(PID.TID 0000.0001) %MON vort_a_sd                    =   7.1297980687894E-06
(PID.TID 0000.0001) %MON vort_p_mean                  =   8.3303658536585E-05
(PID.TID 0000.0001) %MON vort_p_sd                    =   1.7411403312299E-05
(PID.TID 0000.0001) %MON surfExpan_theta_mean         =   7.6948457814089E-23
(PID.TID 0000.0001) %MON surfExpan_salt_mean          =   2.1160825898874E-22
(PID.TID 0000.0001) // =======================================================
(PID.TID 0000.0001) // End MONITOR dynamic field statistics
(PID.TID 0000.0001) // =======================================================
(PID.TID 0000.0001) SOLVE_FOR_PRESSURE: putPmEinXvector =    F
 cg2d: Sum(rhs),rhsMax =   2.08166817117217E-15  1.57908318969395E-04
 cg2d: Sum(rhs),rhsMax =   7.81213174705364E-09  6.65450771566998E-05
 cg2d: Sum(rhs),rhsMax =   9.30980804253467E-09  3.52263244851917E-05
 cg2d: Sum(rhs),rhsMax =   1.91944018249068E-08  2.72112151687911E-05
 cg2d: Sum(rhs),rhsMax =   2.86957733703491E-08  2.11086987026862E-05
 cg2d: Sum(rhs),rhsMax =   4.75854361192685E-08  1.64436976085643E-05
 cg2d: Sum(rhs),rhsMax =   6.90254657216560E-08  1.33894363355717E-05
 cg2d: Sum(rhs),rhsMax =   1.07693287058896E-07  1.09017123419015E-05
 cg2d: Sum(rhs),rhsMax =   1.56281548938098E-07  8.99920900963246E-06
 cg2d: Sum(rhs),rhsMax =   3.11855543675549E-06  7.46022504256057E-06
 cg2d: Sum(rhs),rhsMax =   5.76541495732330E-06  6.29852722628471E-06
 cg2d: Sum(rhs),rhsMax =   8.01499713823373E-06  5.35704626373791E-06
 cg2d: Sum(rhs),rhsMax =   9.81110493078474E-06  4.57913050117371E-06
 cg2d: Sum(rhs),rhsMax =   1.10753392745036E-05  3.93859501074898E-06
 cg2d: Sum(rhs),rhsMax =   1.17520899517998E-05  3.40556327486231E-06
 cg2d: Sum(rhs),rhsMax =   1.17771826974172E-05  2.96095572093995E-06
(PID.TID 0000.0001)      cg2d_init_res =   5.60715478927449E+00
(PID.TID 0000.0001)      cg2d_iters(min,last) =      -1     413
(PID.TID 0000.0001)      cg2d_last_res =   9.69634446258833E-08
(PID.TID 0000.0001) // =======================================================
(PID.TID 0000.0001) // Begin MONITOR dynamic field statistics
(PID.TID 0000.0001) // =======================================================
(PID.TID 0000.0001) %MON time_tsnumber                =                    16
(PID.TID 0000.0001) %MON time_secondsf                =   8.6400000000000E+04
(PID.TID 0000.0001) %MON dynstat_eta_max              =   2.6709966895807E-07
(PID.TID 0000.0001) %MON dynstat_eta_min              =  -3.3581495271404E-07
(PID.TID 0000.0001) %MON dynstat_eta_mean             =  -2.7675944354298E-12
(PID.TID 0000.0001) %MON dynstat_eta_sd               =   6.1663484492791E-08
(PID.TID 0000.0001) %MON dynstat_eta_del2             =   1.7336294091307E-10
(PID.TID 0000.0001) %MON dynstat_uvel_max             =   5.1859951287765E-06
(PID.TID 0000.0001) %MON dynstat_uvel_min             =  -4.6628991765008E-06
(PID.TID 0000.0001) %MON dynstat_uvel_mean            =   2.5280577384489E-12
(PID.TID 0000.0001) %MON dynstat_uvel_sd              =   8.7578271010169E-07
(PID.TID 0000.0001) %MON dynstat_uvel_del2            =   4.5850942719682E-09
(PID.TID 0000.0001) %MON dynstat_vvel_max             =   4.9319192340995E-06
(PID.TID 0000.0001) %MON dynstat_vvel_min             =  -5.6255004913426E-06
(PID.TID 0000.0001) %MON dynstat_vvel_mean            =   4.7919510562143E-12
(PID.TID 0000.0001) %MON dynstat_vvel_sd              =   9.0186048097519E-07
(PID.TID 0000.0001) %MON dynstat_vvel_del2            =   4.6789091649091E-09
(PID.TID 0000.0001) %MON dynstat_wvel_max             =   5.0837490958600E-12
(PID.TID 0000.0001) %MON dynstat_wvel_min             =  -5.0445898252605E-12
(PID.TID 0000.0001) %MON dynstat_wvel_mean            =   4.2988598246024E-25
(PID.TID 0000.0001) %MON dynstat_wvel_sd              =   8.2620078993824E-13
(PID.TID 0000.0001) %MON dynstat_wvel_del2            =   4.6399913962270E-15
(PID.TID 0000.0001) %MON dynstat_theta_max            =   2.0000000000000E+01
(PID.TID 0000.0001) %MON dynstat_theta_min            =   2.0000000000000E+01
(PID.TID 0000.0001) %MON dynstat_theta_mean           =   2.0000000000000E+01
(PID.TID 0000.0001) %MON dynstat_theta_sd             =   0.0000000000000E+00
(PID.TID 0000.0001) %MON dynstat_theta_del2           =   0.0000000000000E+00
(PID.TID 0000.0001) %MON dynstat_salt_max             =   3.0000000000000E+01
(PID.TID 0000.0001) %MON dynstat_salt_min             =   3.0000000000000E+01
(PID.TID 0000.0001) %MON dynstat_salt_mean            =   3.0000000000000E+01
(PID.TID 0000.0001) %MON dynstat_salt_sd              =   0.0000000000000E+00
(PID.TID 0000.0001) %MON dynstat_salt_del2            =   0.0000000000000E+00
(PID.TID 0000.0001) %MON trAdv_CFL_u_max              =   6.4003126545315E-06
(PID.TID 0000.0001) %MON trAdv_CFL_v_max              =   6.9425002015265E-06
(PID.TID 0000.0001) %MON trAdv_CFL_w_max              =   6.1337415217622E-12
(PID.TID 0000.0001) %MON advcfl_uvel_max              =   5.6008747390787E-06
(PID.TID 0000.0001) %MON advcfl_vvel_max              =   6.0755405306500E-06
(PID.TID 0000.0001) %MON advcfl_wvel_max              =   1.0980898047058E-11
(PID.TID 0000.0001) %MON advcfl_W_hf_max              =   0.0000000000000E+00
(PID.TID 0000.0001) %MON pe_b_mean                    =   3.7301400062307E-18
(PID.TID 0000.0001) %MON ke_max                       =   1.9648681587043E-11
(PID.TID 0000.0001) %MON ke_mean                      =   7.8696175245807E-13
(PID.TID 0000.0001) %MON ke_vol                       =   7.5645000000000E+15
(PID.TID 0000.0001) %MON vort_r_min                   =  -1.7559931995020E-09
(PID.TID 0000.0001) %MON vort_r_max                   =   1.6505271164003E-09
(PID.TID 0000.0001) %MON vort_a_mean                  =   8.2300000000000E-05
(PID.TID 0000.0001) %MON vort_a_sd                    =   7.1297555168503E-06
(PID.TID 0000.0001) %MON vort_p_mean                  =   8.3303658536586E-05
(PID.TID 0000.0001) %MON vort_p_sd                    =   1.7411471852633E-05
(PID.TID 0000.0001) %MON surfExpan_theta_mean         =   8.5983575960849E-24
(PID.TID 0000.0001) %MON surfExpan_salt_mean          =   1.2900581892159E-23
(PID.TID 0000.0001) // =======================================================
(PID.TID 0000.0001) // End MONITOR dynamic field statistics
(PID.TID 0000.0001) // =======================================================
 cg2d: Sum(rhs),rhsMax =   1.10994551571902E-05  2.58733990067220E-06
 cg2d: Sum(rhs),rhsMax =   9.50471495104327E-06  2.31095486158594E-06
 cg2d: Sum(rhs),rhsMax =   7.17612256776606E-06  2.07127955840381E-06
 cg2d: Sum(rhs),rhsMax =   4.12840811549881E-06  1.85979082119958E-06
 cg2d: Sum(rhs),rhsMax =   3.40792263346656E-07  1.67313161544048E-06
 cg2d: Sum(rhs),rhsMax =   3.47106386001939E-07  1.50834184716911E-06
 cg2d: Sum(rhs),rhsMax =   3.53489588079958E-07  1.36273636509036E-06
 cg2d: Sum(rhs),rhsMax =   3.56668770191970E-07  1.23395008544130E-06
 cg2d: Sum(rhs),rhsMax =   3.61826837470824E-07  1.11989229601942E-06
 cg2d: Sum(rhs),rhsMax =   3.71731836437683E-07  1.01873100701146E-06
 cg2d: Sum(rhs),rhsMax =   3.83341531177972E-07  9.28863630511623E-07
 cg2d: Sum(rhs),rhsMax =   3.96688132363321E-07  8.48891379387493E-07
 cg2d: Sum(rhs),rhsMax =   4.11724184801177E-07  7.77595679779018E-07
 cg2d: Sum(rhs),rhsMax =   4.25250665438137E-07  7.13915023910991E-07
 cg2d: Sum(rhs),rhsMax =   4.36931081176928E-07  6.61919867622573E-07
 cg2d: Sum(rhs),rhsMax =   4.42377938218719E-07  6.20841616169260E-07
(PID.TID 0000.0001)      cg2d_init_res =   3.43405363677671E+00
(PID.TID 0000.0001)      cg2d_iters(min,last) =      -1     515
(PID.TID 0000.0001)      cg2d_last_res =   9.60711207454889E-08
(PID.TID 0000.0001) // =======================================================
(PID.TID 0000.0001) // Begin MONITOR dynamic field statistics
(PID.TID 0000.0001) // =======================================================
(PID.TID 0000.0001) %MON time_tsnumber                =                    32
(PID.TID 0000.0001) %MON time_secondsf                =   1.7280000000000E+05
(PID.TID 0000.0001) %MON dynstat_eta_max              =   1.3471849390029E-07
(PID.TID 0000.0001) %MON dynstat_eta_min              =  -1.7855031478320E-07
(PID.TID 0000.0001) %MON dynstat_eta_mean             =  -2.5231558000901E-14
(PID.TID 0000.0001) %MON dynstat_eta_sd               =   3.4053632633552E-08
(PID.TID 0000.0001) %MON dynstat_eta_del2             =   4.4492572899315E-11
(PID.TID 0000.0001) %MON dynstat_uvel_max             =   1.3636006837310E-06
(PID.TID 0000.0001) %MON dynstat_uvel_min             =  -1.2601675229530E-06
(PID.TID 0000.0001) %MON dynstat_uvel_mean            =   1.0025977967747E-12
(PID.TID 0000.0001) %MON dynstat_uvel_sd              =   2.9132914276292E-07
(PID.TID 0000.0001) %MON dynstat_uvel_del2            =   6.9666403511688E-10
(PID.TID 0000.0001) %MON dynstat_vvel_max             =   1.3658178509883E-06
(PID.TID 0000.0001) %MON dynstat_vvel_min             =  -1.4610442886850E-06
(PID.TID 0000.0001) %MON dynstat_vvel_mean            =   2.6082130855789E-12
(PID.TID 0000.0001) %MON dynstat_vvel_sd              =   3.0364513715630E-07
[...]
 cg2d: Sum(rhs),rhsMax =  -2.97684540440190E-02  1.36667050378322E-10
 cg2d: Sum(rhs),rhsMax =  -2.95809953403353E-02  1.37533128026898E-10
 cg2d: Sum(rhs),rhsMax =  -2.93999218775574E-02  1.38380191858448E-10
 cg2d: Sum(rhs),rhsMax =  -2.92259021942790E-02  1.39204148933978E-10
 cg2d: Sum(rhs),rhsMax =  -2.90587595816615E-02  1.40004835453720E-10
 cg2d: Sum(rhs),rhsMax =  -2.88983265217235E-02  1.40782092099178E-10
(PID.TID 0000.0001)      cg2d_init_res =   3.45701968632783E-01
(PID.TID 0000.0001)      cg2d_iters(min,last) =      -1     547
(PID.TID 0000.0001)      cg2d_last_res =   9.97255902370289E-08
(PID.TID 0000.0001) // =======================================================
(PID.TID 0000.0001) // Begin MONITOR dynamic field statistics
(PID.TID 0000.0001) // =======================================================
(PID.TID 0000.0001) %MON time_tsnumber                =                  5808
(PID.TID 0000.0001) %MON time_secondsf                =   3.1363200000000E+07
(PID.TID 0000.0001) %MON dynstat_eta_max              =   1.6000414427749E-09
(PID.TID 0000.0001) %MON dynstat_eta_min              =  -1.6352208666461E-09
(PID.TID 0000.0001) %MON dynstat_eta_mean             =   3.9207342898779E-13
(PID.TID 0000.0001) %MON dynstat_eta_sd               =   7.8036200721978E-10
(PID.TID 0000.0001) %MON dynstat_eta_del2             =   5.4512031849186E-15
(PID.TID 0000.0001) %MON dynstat_uvel_max             =   6.0032352422606E-10
(PID.TID 0000.0001) %MON dynstat_uvel_min             =  -8.5454690939097E-10
(PID.TID 0000.0001) %MON dynstat_uvel_mean            =  -4.6939125354461E-14
(PID.TID 0000.0001) %MON dynstat_uvel_sd              =   2.8762145417269E-10
(PID.TID 0000.0001) %MON dynstat_uvel_del2            =   2.4326182030697E-14
(PID.TID 0000.0001) %MON dynstat_vvel_max             =   1.1422391300217E-09
(PID.TID 0000.0001) %MON dynstat_vvel_min             =  -1.1622400322128E-09
(PID.TID 0000.0001) %MON dynstat_vvel_mean            =   1.3633516348186E-15
(PID.TID 0000.0001) %MON dynstat_vvel_sd              =   5.0360610048060E-10
(PID.TID 0000.0001) %MON dynstat_vvel_del2            =   3.0535726614863E-14
(PID.TID 0000.0001) %MON dynstat_wvel_max             =   2.7788398565542E-15
(PID.TID 0000.0001) %MON dynstat_wvel_min             =  -4.5668118352216E-15
(PID.TID 0000.0001) %MON dynstat_wvel_mean            =   1.6209736192565E-29
(PID.TID 0000.0001) %MON dynstat_wvel_sd              =   1.9861381415593E-15
(PID.TID 0000.0001) %MON dynstat_wvel_del2            =   1.2114933342840E-20
(PID.TID 0000.0001) %MON dynstat_theta_max            =   2.0000000000000E+01
(PID.TID 0000.0001) %MON dynstat_theta_min            =   2.0000000000000E+01
(PID.TID 0000.0001) %MON dynstat_theta_mean           =   2.0000000000000E+01
(PID.TID 0000.0001) %MON dynstat_theta_sd             =   0.0000000000000E+00
(PID.TID 0000.0001) %MON dynstat_theta_del2           =   0.0000000000000E+00
(PID.TID 0000.0001) %MON dynstat_salt_max             =   3.0000000000000E+01
(PID.TID 0000.0001) %MON dynstat_salt_min             =   3.0000000000000E+01
(PID.TID 0000.0001) %MON dynstat_salt_mean            =   3.0000000000000E+01
(PID.TID 0000.0001) %MON dynstat_salt_sd              =   0.0000000000000E+00
(PID.TID 0000.0001) %MON dynstat_salt_del2            =   0.0000000000000E+00
(PID.TID 0000.0001) %MON trAdv_CFL_u_max              =   9.2520407876561E-10
(PID.TID 0000.0001) %MON trAdv_CFL_v_max              =   1.2578937617679E-09
(PID.TID 0000.0001) %MON trAdv_CFL_w_max              =   3.0222234796762E-15
(PID.TID 0000.0001) %MON advcfl_uvel_max              =   9.2291066214225E-10
(PID.TID 0000.0001) %MON advcfl_vvel_max              =   1.2552192347898E-09
(PID.TID 0000.0001) %MON advcfl_wvel_max              =   9.8643135640786E-15
(PID.TID 0000.0001) %MON advcfl_W_hf_max              =   0.0000000000000E+00
(PID.TID 0000.0001) %MON pe_b_mean                    =   5.9739468072902E-22
(PID.TID 0000.0001) %MON ke_max                       =   6.9346638808908E-19
(PID.TID 0000.0001) %MON ke_mean                      =   1.6748897530279E-19
(PID.TID 0000.0001) %MON ke_vol                       =   7.5645000000000E+15
(PID.TID 0000.0001) %MON vort_r_min                   =  -5.5171847186608E-14
(PID.TID 0000.0001) %MON vort_r_max                   =   5.3435008982613E-14
(PID.TID 0000.0001) %MON vort_a_mean                  =   8.2299999999999E-05
(PID.TID 0000.0001) %MON vort_a_sd                    =   7.1297555115685E-06
(PID.TID 0000.0001) %MON vort_p_mean                  =   8.3303658536585E-05
(PID.TID 0000.0001) %MON vort_p_sd                    =   1.7411470229721E-05
(PID.TID 0000.0001) %MON surfExpan_theta_mean         =   3.5493782190350E-28
(PID.TID 0000.0001) %MON surfExpan_salt_mean          =   5.1659603904058E-28
(PID.TID 0000.0001) // =======================================================
(PID.TID 0000.0001) // End MONITOR dynamic field statistics
(PID.TID 0000.0001) // =======================================================
 cg2d: Sum(rhs),rhsMax =  -2.87444442360194E-02  1.41535764061152E-10
 cg2d: Sum(rhs),rhsMax =  -2.85969622959202E-02  1.42265701075764E-10
 cg2d: Sum(rhs),rhsMax =  -2.84553398516023E-02  1.42973758890722E-10
 cg2d: Sum(rhs),rhsMax =  -2.83193782893258E-02  1.43660177403982E-10
 cg2d: Sum(rhs),rhsMax =  -2.81894414273745E-02  1.44322367282627E-10
 cg2d: Sum(rhs),rhsMax =  -2.80654072239144E-02  1.44960195946910E-10
 cg2d: Sum(rhs),rhsMax =  -2.79471603415285E-02  1.45573535543306E-10
 cg2d: Sum(rhs),rhsMax =  -2.78345919606830E-02  1.46162262953065E-10
 cg2d: Sum(rhs),rhsMax =  -2.77275994424330E-02  1.46726259812062E-10
 cg2d: Sum(rhs),rhsMax =  -2.76260861175685E-02  1.47265412536481E-10
 cg2d: Sum(rhs),rhsMax =  -2.75297097317284E-02  1.47780961684736E-10
 cg2d: Sum(rhs),rhsMax =  -2.74382069775907E-02  1.48273791858854E-10
 cg2d: Sum(rhs),rhsMax =  -2.73519486237339E-02  1.48741395297583E-10
 cg2d: Sum(rhs),rhsMax =  -2.72708589390230E-02  1.49183677101494E-10
 cg2d: Sum(rhs),rhsMax =  -2.71948672404861E-02  1.49600547343468E-10
 cg2d: Sum(rhs),rhsMax =  -2.71239077941018E-02  1.49991921028330E-10
(PID.TID 0000.0001)      cg2d_init_res =   3.21528628153002E-01
(PID.TID 0000.0001)      cg2d_iters(min,last) =      -1     547
(PID.TID 0000.0001)      cg2d_last_res =   9.90600546756822E-08
(PID.TID 0000.0001) // =======================================================
(PID.TID 0000.0001) // Begin MONITOR dynamic field statistics
(PID.TID 0000.0001) // =======================================================
(PID.TID 0000.0001) %MON time_tsnumber                =                  5824
(PID.TID 0000.0001) %MON time_secondsf                =   3.1449600000000E+07
(PID.TID 0000.0001) %MON dynstat_eta_max              =   1.6326285239674E-09
(PID.TID 0000.0001) %MON dynstat_eta_min              =  -1.7183426401335E-09
(PID.TID 0000.0001) %MON dynstat_eta_mean             =   3.9207344534350E-13
(PID.TID 0000.0001) %MON dynstat_eta_sd               =   7.7743244466272E-10
(PID.TID 0000.0001) %MON dynstat_eta_del2             =   5.5107975554143E-15
(PID.TID 0000.0001) %MON dynstat_uvel_max             =   5.8590377643195E-10
(PID.TID 0000.0001) %MON dynstat_uvel_min             =  -8.5578849586539E-10
(PID.TID 0000.0001) %MON dynstat_uvel_mean            =  -2.6612373906846E-14
(PID.TID 0000.0001) %MON dynstat_uvel_sd              =   2.7410705493110E-10
(PID.TID 0000.0001) %MON dynstat_uvel_del2            =   2.4975988687236E-14
(PID.TID 0000.0001) %MON dynstat_vvel_max             =   1.1575642056541E-09
(PID.TID 0000.0001) %MON dynstat_vvel_min             =  -1.1124758227369E-09
(PID.TID 0000.0001) %MON dynstat_vvel_mean            =   2.9159895705015E-15
(PID.TID 0000.0001) %MON dynstat_vvel_sd              =   5.0649592581663E-10
(PID.TID 0000.0001) %MON dynstat_vvel_del2            =   2.9543470997561E-14
(PID.TID 0000.0001) %MON dynstat_wvel_max             =   2.4590106387223E-15
(PID.TID 0000.0001) %MON dynstat_wvel_min             =  -4.4414439977214E-15
(PID.TID 0000.0001) %MON dynstat_wvel_mean            =   1.1919774510434E-28
(PID.TID 0000.0001) %MON dynstat_wvel_sd              =   1.9764956262091E-15
(PID.TID 0000.0001) %MON dynstat_wvel_del2            =   1.1945988593418E-20
(PID.TID 0000.0001) %MON dynstat_theta_max            =   2.0000000000000E+01
(PID.TID 0000.0001) %MON dynstat_theta_min            =   2.0000000000000E+01
(PID.TID 0000.0001) %MON dynstat_theta_mean           =   2.0000000000000E+01
(PID.TID 0000.0001) %MON dynstat_theta_sd             =   0.0000000000000E+00
(PID.TID 0000.0001) %MON dynstat_theta_del2           =   0.0000000000000E+00
(PID.TID 0000.0001) %MON dynstat_salt_max             =   3.0000000000000E+01
(PID.TID 0000.0001) %MON dynstat_salt_min             =   3.0000000000000E+01
(PID.TID 0000.0001) %MON dynstat_salt_mean            =   3.0000000000000E+01
(PID.TID 0000.0001) %MON dynstat_salt_sd              =   0.0000000000000E+00
(PID.TID 0000.0001) %MON dynstat_salt_del2            =   0.0000000000000E+00
(PID.TID 0000.0001) %MON trAdv_CFL_u_max              =   9.1743141584211E-10
(PID.TID 0000.0001) %MON trAdv_CFL_v_max              =   1.2498688813325E-09
(PID.TID 0000.0001) %MON trAdv_CFL_w_max              =   2.6779588089554E-15
(PID.TID 0000.0001) %MON advcfl_uvel_max              =   9.2425157553462E-10
(PID.TID 0000.0001) %MON advcfl_vvel_max              =   1.2501693421064E-09
(PID.TID 0000.0001) %MON advcfl_wvel_max              =   9.5935190350782E-15
(PID.TID 0000.0001) %MON advcfl_W_hf_max              =   0.0000000000000E+00
(PID.TID 0000.0001) %MON pe_b_mean                    =   5.9291773390086E-22
(PID.TID 0000.0001) %MON ke_max                       =   6.6998351735978E-19
(PID.TID 0000.0001) %MON ke_mean                      =   1.6516226886463E-19
(PID.TID 0000.0001) %MON ke_vol                       =   7.5645000000000E+15
(PID.TID 0000.0001) %MON vort_r_min                   =  -5.2819490035157E-14
(PID.TID 0000.0001) %MON vort_r_max                   =   5.8827918200461E-14
(PID.TID 0000.0001) %MON vort_a_mean                  =   8.2300000000001E-05
(PID.TID 0000.0001) %MON vort_a_sd                    =   7.1297555115542E-06
(PID.TID 0000.0001) %MON vort_p_mean                  =   8.3303658536586E-05
(PID.TID 0000.0001) %MON vort_p_sd                    =   1.7411470229692E-05
(PID.TID 0000.0001) %MON surfExpan_theta_mean         =   2.3804369199062E-27
(PID.TID 0000.0001) %MON surfExpan_salt_mean          =   3.5679229161808E-27
(PID.TID 0000.0001) // =======================================================
(PID.TID 0000.0001) // End MONITOR dynamic field statistics
(PID.TID 0000.0001) // =======================================================
(PID.TID 0000.0001) %CHECKPOINT      5824 ckptB
(PID.TID 0000.0001)   Seconds in section "ALL                    [THE_MODEL_MAIN]":
(PID.TID 0000.0001)           User time:   12585.6257936880
(PID.TID 0000.0001)         System time:  0.000000000000000E+000
(PID.TID 0000.0001)     Wall clock time:   12632.5715079308
(PID.TID 0000.0001)          No. starts:           1
(PID.TID 0000.0001)           No. stops:           1
(PID.TID 0000.0001)   Seconds in section "INITIALISE_FIXED       [THE_MODEL_MAIN]":
(PID.TID 0000.0001)           User time:  7.652400247752666E-002
(PID.TID 0000.0001)         System time:  0.000000000000000E+000
(PID.TID 0000.0001)     Wall clock time:  0.296082973480225
(PID.TID 0000.0001)          No. starts:           1
(PID.TID 0000.0001)           No. stops:           1
(PID.TID 0000.0001)   Seconds in section "THE_MAIN_LOOP          [THE_MODEL_MAIN]":
(PID.TID 0000.0001)           User time:   12585.5492336899
(PID.TID 0000.0001)         System time:  0.000000000000000E+000
(PID.TID 0000.0001)     Wall clock time:   12632.2753598690
(PID.TID 0000.0001)          No. starts:           1
(PID.TID 0000.0001)           No. stops:           1
(PID.TID 0000.0001)   Seconds in section "INITIALISE_VARIA    [THE_MAIN_LOOP]":
(PID.TID 0000.0001)           User time:  2.754399925470352E-002
(PID.TID 0000.0001)         System time:  0.000000000000000E+000
(PID.TID 0000.0001)     Wall clock time:  0.104917049407959
(PID.TID 0000.0001)          No. starts:           1
(PID.TID 0000.0001)           No. stops:           1
(PID.TID 0000.0001)   Seconds in section "MAIN LOOP           [THE_MAIN_LOOP]":
(PID.TID 0000.0001)           User time:   12585.5216506869
(PID.TID 0000.0001)         System time:  0.000000000000000E+000
(PID.TID 0000.0001)     Wall clock time:   12632.1703572273
(PID.TID 0000.0001)          No. starts:           1
(PID.TID 0000.0001)           No. stops:           1
(PID.TID 0000.0001)   Seconds in section "MAIN_DO_LOOP        [THE_MAIN_LOOP]":
(PID.TID 0000.0001)           User time:   12585.4373787940
(PID.TID 0000.0001)         System time:  0.000000000000000E+000
(PID.TID 0000.0001)     Wall clock time:   12632.1028175354
(PID.TID 0000.0001)          No. starts:        5824
(PID.TID 0000.0001)           No. stops:        5824
(PID.TID 0000.0001)   Seconds in section "FORWARD_STEP        [MAIN_DO_LOOP]":
(PID.TID 0000.0001)           User time:   12585.3091574311
(PID.TID 0000.0001)         System time:  0.000000000000000E+000
(PID.TID 0000.0001)     Wall clock time:   12631.9607825279
(PID.TID 0000.0001)          No. starts:        5824
(PID.TID 0000.0001)           No. stops:        5824
(PID.TID 0000.0001)   Seconds in section "LOAD_FIELDS_DRIVER  [FORWARD_STEP]":
(PID.TID 0000.0001)           User time:  0.214131288230419
(PID.TID 0000.0001)         System time:  0.000000000000000E+000
(PID.TID 0000.0001)     Wall clock time:  0.211966276168823
(PID.TID 0000.0001)          No. starts:        5824
(PID.TID 0000.0001)           No. stops:        5824
(PID.TID 0000.0001)   Seconds in section "EXTERNAL_FLDS_LOAD [LOAD_FLDS_DRIVER]":
(PID.TID 0000.0001)           User time:  7.110182195901871E-002
(PID.TID 0000.0001)         System time:  0.000000000000000E+000
(PID.TID 0000.0001)     Wall clock time:  7.038307189941406E-002
(PID.TID 0000.0001)          No. starts:        5824
(PID.TID 0000.0001)           No. stops:        5824
(PID.TID 0000.0001)   Seconds in section "DO_ATMOSPHERIC_PHYS [FORWARD_STEP]":
(PID.TID 0000.0001)           User time:  6.976501643657684E-002
(PID.TID 0000.0001)         System time:  0.000000000000000E+000
(PID.TID 0000.0001)     Wall clock time:  7.124543190002441E-002
(PID.TID 0000.0001)          No. starts:        5824
(PID.TID 0000.0001)           No. stops:        5824
(PID.TID 0000.0001)   Seconds in section "DO_OCEANIC_PHYS     [FORWARD_STEP]":
(PID.TID 0000.0001)           User time:   105.850519679487
(PID.TID 0000.0001)         System time:  0.000000000000000E+000
(PID.TID 0000.0001)     Wall clock time:   106.045444965363
(PID.TID 0000.0001)          No. starts:        5824
(PID.TID 0000.0001)           No. stops:        5824
(PID.TID 0000.0001)   Seconds in section "THERMODYNAMICS      [FORWARD_STEP]":
(PID.TID 0000.0001)           User time:   78.1329509019852
(PID.TID 0000.0001)         System time:  0.000000000000000E+000
(PID.TID 0000.0001)     Wall clock time:   79.4181203842163
(PID.TID 0000.0001)          No. starts:        5824
(PID.TID 0000.0001)           No. stops:        5824
(PID.TID 0000.0001)   Seconds in section "DYNAMICS            [FORWARD_STEP]":
(PID.TID 0000.0001)           User time:   1352.54064352810
(PID.TID 0000.0001)         System time:  0.000000000000000E+000
(PID.TID 0000.0001)     Wall clock time:   1357.02893114090
(PID.TID 0000.0001)          No. starts:        5824
(PID.TID 0000.0001)           No. stops:        5824
(PID.TID 0000.0001)   Seconds in section "SOLVE_FOR_PRESSURE  [FORWARD_STEP]":
(PID.TID 0000.0001)           User time:   10658.8951470107
(PID.TID 0000.0001)         System time:  0.000000000000000E+000
(PID.TID 0000.0001)     Wall clock time:   10692.7998192310
(PID.TID 0000.0001)          No. starts:        5824
(PID.TID 0000.0001)           No. stops:        5824
(PID.TID 0000.0001)   Seconds in section "MOM_CORRECTION_STEP [FORWARD_STEP]":
(PID.TID 0000.0001)           User time:   135.223212659359
(PID.TID 0000.0001)         System time:  0.000000000000000E+000
(PID.TID 0000.0001)     Wall clock time:   135.881404638290
(PID.TID 0000.0001)          No. starts:        5824
(PID.TID 0000.0001)           No. stops:        5824
(PID.TID 0000.0001)   Seconds in section "INTEGR_CONTINUITY   [FORWARD_STEP]":
(PID.TID 0000.0001)           User time:   111.937686681747
(PID.TID 0000.0001)         System time:  0.000000000000000E+000
(PID.TID 0000.0001)     Wall clock time:   112.912931919098
(PID.TID 0000.0001)          No. starts:        5824
(PID.TID 0000.0001)           No. stops:        5824
(PID.TID 0000.0001)   Seconds in section "TRC_CORRECTION_STEP [FORWARD_STEP]":
(PID.TID 0000.0001)           User time:  7.747572660446167E-002
(PID.TID 0000.0001)         System time:  0.000000000000000E+000
(PID.TID 0000.0001)     Wall clock time:  7.299900054931641E-002
(PID.TID 0000.0001)          No. starts:        5824
(PID.TID 0000.0001)           No. stops:        5824
(PID.TID 0000.0001)   Seconds in section "BLOCKING_EXCHANGES  [FORWARD_STEP]":
(PID.TID 0000.0001)           User time:   2.48618614673615
(PID.TID 0000.0001)         System time:  0.000000000000000E+000
(PID.TID 0000.0001)     Wall clock time:   2.49547958374023
(PID.TID 0000.0001)          No. starts:        5824
(PID.TID 0000.0001)           No. stops:        5824
(PID.TID 0000.0001)   Seconds in section "MONITOR             [FORWARD_STEP]":
(PID.TID 0000.0001)           User time:   130.862352669239
(PID.TID 0000.0001)         System time:  0.000000000000000E+000
(PID.TID 0000.0001)     Wall clock time:   131.065846204758
(PID.TID 0000.0001)          No. starts:        5824
(PID.TID 0000.0001)           No. stops:        5824
(PID.TID 0000.0001)   Seconds in section "DO_THE_MODEL_IO     [FORWARD_STEP]":
(PID.TID 0000.0001)           User time:   6.26277500391006
(PID.TID 0000.0001)         System time:  0.000000000000000E+000
(PID.TID 0000.0001)     Wall clock time:   12.5706534385681
(PID.TID 0000.0001)          No. starts:        5824
(PID.TID 0000.0001)           No. stops:        5824
(PID.TID 0000.0001)   Seconds in section "DO_WRITE_PICKUP     [FORWARD_STEP]":
(PID.TID 0000.0001)           User time:  0.120856344699860
(PID.TID 0000.0001)         System time:  0.000000000000000E+000
(PID.TID 0000.0001)     Wall clock time:  0.349585533142090
(PID.TID 0000.0001)          No. starts:        5824
(PID.TID 0000.0001)           No. stops:        5824
(PID.TID 0000.0001) // ======================================================
(PID.TID 0000.0001) // Tile <-> Tile communication statistics
(PID.TID 0000.0001) // ======================================================
(PID.TID 0000.0001) // o Tile number: 000001
(PID.TID 0000.0001) //         No. X exchanges =              0
(PID.TID 0000.0001) //            Max. X spins =              0
(PID.TID 0000.0001) //            Min. X spins =     1000000000
(PID.TID 0000.0001) //          Total. X spins =              0
(PID.TID 0000.0001) //            Avg. X spins =       0.00E+00
(PID.TID 0000.0001) //         No. Y exchanges =              0
(PID.TID 0000.0001) //            Max. Y spins =              0
(PID.TID 0000.0001) //            Min. Y spins =     1000000000
(PID.TID 0000.0001) //          Total. Y spins =              0
(PID.TID 0000.0001) //            Avg. Y spins =       0.00E+00
(PID.TID 0000.0001) // o Thread number: 000001
(PID.TID 0000.0001) //            No. barriers =       19106862
(PID.TID 0000.0001) //      Max. barrier spins =              1
(PID.TID 0000.0001) //      Min. barrier spins =              1
(PID.TID 0000.0001) //     Total barrier spins =       19106862
(PID.TID 0000.0001) //      Avg. barrier spins =       1.00E+00
PROGRAM MAIN: Execution ended Normally
